425
Coordinates from ORCA-job ORCA
  C   -3.43212683038803     -2.27795140749617      3.17474458993304
  C   -4.23157990195264     -3.28580660755234      3.70798176103907
  N   -2.10637104554009     -2.67696696872381      3.30891900743147
  C   -2.05654082419313     -3.91721542270225      3.93412984939975
  C   -3.36584044515594     -4.31856779101926      4.18474037939480
  C   -4.46173368514297      1.62733536194518      1.72469879056348
  C   -3.52845605500227      0.83390085028821      1.04069503562293
  C   -5.10238404386336      1.06694582729112      2.84216816873702
  C   -4.78012029810078     -0.20224448780712      3.29074549650159
  C   -3.21933377813415     -0.44474063221403      1.47575206406132
  C   -3.81500467590225     -0.97804087804589      2.62908944093532
  C   0.18456743693950     -3.89202411739557      5.04606684951368
  C   -0.82144850851725     -4.57895720996205      4.35059887855955
  C   1.27465991968666     -4.56851172920914      5.56440187532091
  C   1.40130618644521     -5.96008038624223      5.43051523366796
  C   -0.66490019162845     -5.95944354866407      4.15627813205475
  C   0.41828928730809     -6.63641315862382      4.69218201769043
  C   -3.79574856964909     -5.52649122673720      4.89742133455705
  C   -3.18242422312115     -5.91980070383316      6.09563938962360
  C   -4.88747224372879     -6.27813366920823      4.44042888914700
  C   -5.38900537073927     -7.33435052276809      5.18341010163427
  C   -3.67377445625826     -6.98624081350862      6.82994357593642
  C   -4.81079378823599     -7.69506428808964      6.40939492822232
  C   -6.50174147839038     -2.81495076063817      2.76615721948241
  C   -7.86369242932029     -2.62449363343578      2.93499021420645
  C   -5.69170817684547     -3.22306780682070      3.83475965449337
  C   -6.31197313798580     -3.50811569799939      5.05962557481375
  C   -8.47812394238544     -2.85292380389117      4.17565592605532
  C   -7.67602099281768     -3.33222464782980      5.22389627474205
  C   0.24520313058033      0.17989720915306      3.35767137599985
  C   -0.89672416792041     -0.57779441589153      3.55041061154321
  C   1.35996670320108     -0.34176585235786      2.68483396236906
  C   1.25807634633968     -1.63234130415173      2.14597656897342
  C   -0.96615705622488     -1.87133776964876      3.03495428341182
  C   0.10269202463324     -2.38532378471559      2.30201926840337
  H   -3.06105522607893      1.21220441324503      0.13740226069133
  H   -5.81918791179595      1.65458640319494      3.40809615049420
  H   -5.26024570370881     -0.59263702276598      4.18261902623867
  H   -2.50630255017437     -1.03997421739694      0.91528346588824
  H   0.09123418488401     -2.82499159706876      5.21873745062110
  H   2.00827524323547     -4.01241102350855      6.13938205911997
  H   -1.41377909271675     -6.50283453863875      3.58998606712414
  H   0.51474304425284     -7.70274723371996      4.51668759808404
  H   -2.33230249291309     -5.35876628391377      6.47088759033423
  H   -5.35246229902514     -6.01829657200658      3.49527519374935
  H   -6.23020593452875     -7.90103981507540      4.79793011455538
  H   -3.20567019633773     -7.22858237130520      7.77939533076582
  H   -6.04994858399948     -2.63541458984866      1.79605795194903
  H   -8.46476736489941     -2.31665949709022      2.08559080105379
  H   -5.70982697832604     -3.83692157405761      5.90124992394094
  H   -8.11176439343838     -3.51224949217932      6.20225108236839
  H   0.28960552509440      1.17511431477383      3.78747630137472
  H   -1.73083633936505     -0.17716829742275      4.11602807631734
  H   2.08353234460234     -2.04345356825347      1.57433793622380
  H   0.03355586568662     -3.37937411368801      1.87419935282249
  C   -18.82349700270677     -0.37530244890306      2.10480979481038
  C   -18.13871052161590     -1.47950844339497      2.59594274632556
  C   -18.24236326369352      0.88093198909178      2.21533705120244
  C   -16.98793899743499      0.99729824348408      2.81785605546920
  N   -16.33430740927194     -0.07038245235147      3.31251283797375
  C   -16.90081098286712     -1.27137727912479      3.19508825582334
  C   -16.28084121808882      2.29643047868942      2.96030408971351
  C   -16.74648534985743      3.49869752490184      2.40943477229921
  C   -15.98965222258817      4.65137724892899      2.57344994949780
  C   -14.41751661868239      3.35832541236146      3.81028753244359
  N   -15.13717230514218      2.24818898342350      3.64841840697102
  N   -13.20184847235520      3.30941212688921      4.52721996758433
  N   -13.01602064483618      2.22886058733374      5.15129878852682
  C   -11.75874429116251      2.10229535708774      5.76567422355080
  C   -11.57683201232219      0.96116660944653      6.55522851929160
  C   -10.68226356611049      2.98139780503481      5.55656730922350
  C   -9.44085654679546      2.67645245685642      6.07944667085604
  C   -10.32591440040530      0.65242233433634      7.05657040433061
  C   -9.22854823668332      1.48682257992849      6.80019036279989
  C   -14.79312390648683      4.59096134983816      3.27586541194746
  H   -19.79589096905337     -0.48836471649322      1.63757911568365
  H   -18.55083576643215     -2.47914050957035      2.51940521555660
  H   -18.76729943303679      1.74952084195481      1.83754134466810
  H   -16.33669645807369     -2.11047086365947      3.59904876429424
  H   -17.66957204033942      3.53775058163142      1.84560332612724
  H   -16.32928346311748      5.58903405116277      2.14674864611094
  H   -12.43079957416409      0.32289142784706      6.75114692723941
  H   -10.83096842031884      3.86844037079977      4.95261607275165
  H   -8.59769347659282      3.33182103341864      5.88294076905858
  H   -10.18853760727261     -0.24281523109142      7.65402908283501
  H   -14.16146073397772      5.45853867663003      3.42549572814070
  C   -18.84618307821146      3.57790636334558      6.10215775959263
  C   -17.71537523058467      4.38297067889253      6.15694323577480
  C   -18.69968075876750      2.20580517154418      6.25878501641900
  C   -17.41735045854172      1.68520181064124      6.45423387252375
  N   -16.31882350711491      2.45495765378776      6.47333582438462
  C   -16.47787413618019      3.77168118058502      6.34049555965966
  C   -17.19465425165270      0.23141013876807      6.65101657814470
  C   -18.16343580579762     -0.58579321889513      7.25293807628633
  C   -17.89259645792800     -1.93369261049059      7.43894997607904
  C   -15.76850543637121     -1.55934616454696      6.42173760783962
  N   -16.01742037389294     -0.25610245483808      6.24709126605236
  N   -14.53785902496274     -2.10830094118478      6.00862731729576
  N   -13.84490910871276     -1.35709967785868      5.26528892783734
  C   -12.56541406599007     -1.84956163002297      4.95429292094395
  C   -11.82563400666278     -1.12291601127956      4.01389337058450
  C   -11.97538551103558     -2.95047147012786      5.59703730586552
  C   -10.66628008439689     -3.28443311630932      5.31951791373031
  C   -10.51555446682498     -1.47103221348979      3.73595361901126
  C   -9.89922975298004     -2.54642389378324      4.39615345137045
  C   -16.66780975094996     -2.43964572213448      7.02511112447032
  H   -19.82886690939797      4.01046388042538      5.94642696657120
  H   -17.78703776024133      5.46081626593633      6.06207888062823
  H   -19.56447861908066      1.55373574809448      6.20782158887474
  H   -15.56971501046739      4.37087415995974      6.38677013323094
  H   -19.09500830420889     -0.16033256952807      7.60604567832488
  H   -18.62267674286758     -2.57794384376718      7.91678898941386
  H   -12.28604921784015     -0.26629520080843      3.53077763537152
  H   -12.55356114271214     -3.51811454660863      6.31614526196792
  H   -10.22255931558164     -4.14316797150022      5.81271987461288
  H   -9.94274347269864     -0.86983777210656      3.03847219399272
  H   -16.39508723718009     -3.48055787020189      7.15117833735574
  Li  -14.77011096628025      0.62275598285669      4.84128920710172
  N   -2.78040667879200      0.39619179059654      8.03228762679662
  C   -3.96161031098609     -0.28162193719525      8.30382302363819
  C   -1.69518226005547     -0.38461075881712      8.41668520047165
  C   -2.19981173353940     -1.56911441067747      8.95213212032700
  C   -3.62541047718755     -1.50058805801568      8.88389291420398
  C   -2.52822966140229      3.95600309741760      5.77987435390838
  C   -3.23756559120355      2.84584504658435      5.30277548928554
  C   -1.90625032502732      3.86672427460178      7.03154129474784
  C   -2.00583913562932      2.70985896284815      7.79561925878959
  C   -3.31302331598049      1.67983061825373      6.04450357567036
  C   -2.70261562288413      1.61169115745186      7.29611482359859
  C   -0.37007451854432     -3.22408688816049      8.60812443673024
  C   -1.41881375043593     -2.73148120180522      9.39665173010932
  C   0.33523000997857     -4.35436109864698      8.98338872709232
  C   -0.00213773060621     -5.05986960556149     10.14584479458482
  C   -1.73659229216580     -3.42143537987120     10.57518967815846
  C   -1.05199246858359     -4.57429102198163     10.93563210938592
  C   -4.57238246643510     -2.55021275101609      9.28217642030336
  C   -4.38462915265529     -3.86665840211257      8.84048313511775
  C   -5.69290624008781     -2.27280910491333     10.07691809222403
  C   -6.60000810649692     -3.27097184608866     10.40484544524433
  C   -5.27570849746393     -4.86821991432337      9.18725051807986
  C   -6.40160693204326     -4.58942628013583      9.97305991877752
  C   -6.19347287082495     -0.65810230924570      7.33275789336471
  C   -7.46617427470874     -0.24195524002296      6.98855955491857
  C   -5.28622997984466      0.22113506341421      7.94284668651268
  C   -5.69711911086053      1.54288581972736      8.17240408917592
  C   -7.87649737923375      1.07929519786734      7.21225575393867
  C   -6.96527308118652      1.96741371718203      7.79906282414460
  C   1.45021980105630      0.70086702266590      6.64871865084589
  C   0.11045054905105      0.49036295664280      6.92326527786282
  C   2.43957715202109      0.37439476807243      7.58469636683304
  C   2.03269082180609     -0.11936654868717      8.83202804383538
  C   -0.30058795230620     -0.02623359034712      8.16158475148351
  C   0.68835041690294     -0.29656448873437      9.12150608801699
  H   -3.69264674634153      2.88390007955060      4.31803189990287
  H   -1.37100295163259      4.72371436879250      7.42816260411528
  H   -1.54206424409195      2.65409077675489      8.77461160935687
  H   -3.83961035996986      0.81568080061032      5.65528340883742
  H   -0.12528202471422     -2.72452726921520      7.67767021806128
  H   1.11740189585274     -4.74284540795460      8.33857141638449
  H   -2.53395768689304     -3.04990300888109     11.21035218495444
  H   -1.31431986713571     -5.08756863796491     11.85581296963400
  H   -3.53900502838222     -4.09872024727323      8.20241971870947
  H   -5.84669475588600     -1.26318904305898     10.44418279634556
  H   -7.44933173274508     -3.03526174208400     11.03891479399425
  H   -5.12931811057856     -5.87317744838015      8.80389827471878
  H   -5.88288047724057     -1.67381715767083      7.11680664360185
  H   -8.14030720994964     -0.93204786511384      6.49089093066884
  H   -5.02446589313461      2.23927364038876      8.66216324884044
  H   -7.26974339686719      2.98856548065547      8.00754302476235
  H   1.75051435563365      1.05142640544149      5.66601395134879
  H   -0.62393967359911      0.68838477443700      6.15259393713930
  H   2.77650191536139     -0.34180904757960      9.59100569454693
  H   0.39252470973453     -0.66734565595401     10.09685517304697
  C   -4.39996161673992     10.73075405515057     -4.17857830990040
  C   -5.31789584826943      9.74462456747264     -3.84064793142300
  C   -3.29404085622534     10.92899828537548     -3.36245415839087
  C   -3.13836164202241     10.13256668632493     -2.22601164746028
  N   -4.03915211171922      9.19106961794714     -1.88747578607673
  C   -5.09346905698203      9.00720846263374     -2.68266245044989
  C   -1.97778731187212     10.26042701016251     -1.30699414276620
  C   -0.87954090022632     11.09665250317737     -1.55444011047275
  C   0.16796406892501     11.11920769184886     -0.64347167461184
  C   -1.03013361166779      9.52983502303749      0.66449532888589
  N   -2.03561915961100      9.50144455595402     -0.20961613517982
  N   -1.07679373674869      8.71558021104452      1.81768377275396
  N   -2.19439675917351      8.16915294182333      2.02030763784988
  C   -2.22140735876586      7.25125656962874      3.08670209419169
  C   -3.47242187123833      6.70370549714418      3.39006791570562
  C   -1.08034427498426      6.80056241940020      3.77134981827160
  C   -1.19652022264686      5.77575228341464      4.69037284725184
  C   -3.57635962525349      5.66096036537253      4.29330269175229
  C   -2.43625834062418      5.15874830685083      4.93416405243720
  C   0.10865965246299     10.31539279164056      0.48761849557202
  H   -4.53882471396693     11.33663336296316     -5.06753531485907
  H   -6.18843057988809      9.54921864257703     -4.45621889105545
  H   -2.57266210400811     11.69649510583808     -3.61401549273288
  H   -5.79397721141298      8.23043328128590     -2.38053196184368
  H   -0.82809937016535     11.70609088133295     -2.44738025599689
  H   1.02922735165943     11.75405223446586     -0.82173176848681
  H   -4.34990041581487      7.10024014439543      2.89282467088145
  H   -0.11532217514968      7.23557897020584      3.54096372084588
  H   -0.30994961121914      5.39639815268817      5.18959187540747
  H   -4.54695969495702      5.22485174526962      4.50670593614165
  H   0.90197975620446     10.28811464922944      1.22514127302414
  C   -3.37402114390715     13.88904939198086      0.40112887355116
  C   -2.44394494297729     13.38435571825426      1.30099205818667
  C   -4.49441581274388     13.12652252596571      0.09784261888389
  C   -4.63890422178979     11.87448546131365      0.70227633596515
  N   -3.72592384057810     11.36793935737921      1.54466364506945
  C   -2.66513907640020     12.11933216894040      1.83928050496033
  C   -5.82653288929349     11.02340443885085      0.44388786508543
  C   -7.07773737937828     11.58264509819577      0.14245726902936
  C   -8.16578452800065     10.74509373996388     -0.05550482102000
  C   -6.70723922542198      8.90084863549316      0.34071761424958
  N   -5.65294895818407      9.70115641195407      0.53893710041311
  N   -6.56516897375525      7.50243937132668      0.44016038412446
  N   -5.37197379322026      7.08688961986521      0.45223277386101
  C   -5.23322299638785      5.70564491549312      0.68133780063376
  C   -3.95763233941733      5.15958631292035      0.49655426711357
  C   -6.26993822450345      4.89332148341711      1.16918263232618
  C   -6.01593034160721      3.57483518015550      1.48493408532185
  C   -3.71663935977971      3.83079330087518      0.80048311939754
  C   -4.73476776054488      3.01366539178480      1.31842029534229
  C   -7.98914338823102      9.37248439093175      0.05431468787245
  H   -3.23470369196994     14.86418507000268     -0.05352172770180
  H   -1.56683041081632     13.95595247743402      1.58358566414214
  H   -5.22961023825909     13.49209644207148     -0.61034156989240
  H   -1.95588506494541     11.69048858292503      2.54569368073811
  H   -7.20124827658007     12.65827114827997      0.10743677033117
  H   -9.14373542637976     11.16001689694052     -0.27420487088423
  H   -3.15849870022414      5.79950645865804      0.13423069834517
  H   -7.25736433839638      5.31741526661902      1.30604333978864
  H   -6.82514396450789      2.95157856625295      1.85149935162312
  H   -2.71476725527473      3.43137068651858      0.68554010346662
  H   -8.80177152798165      8.66811694043798     -0.07725932637391
  Li  -3.84150390018374      8.70538814438299      0.33416469345928
  C   12.17347685409236      4.27833396957771      6.26282230248488
  C   12.06909444088226      2.89904241268226      6.37981529050133
  C   11.26682412935198      4.95323976971205      5.45632133584346
  C   10.28202531537193      4.22494182308534      4.78659909559107
  N   10.17449923733248      2.88846471088718      4.90609833946002
  C   11.05232770423772      2.25340825205302      5.68411439551698
  C   9.27302241250768      4.87260250078939      3.91404667595860
  C   9.43231129899036      6.16947623054194      3.40653916479235
  C   8.42960026499749      6.71266285943231      2.61458925792467
  C   7.23962742076484      4.66021325621787      2.85454230759331
  N   8.19558533618524      4.13185198007370      3.62276764726554
  N   6.07182413776285      3.92208287085914      2.56630925061297
  N   6.16912800084088      2.68023878150785      2.75275016368301
  C   4.95455972521997      1.97798774288032      2.61383119020495
  C   5.02177992937219      0.58389385175760      2.71008131397865
  C   3.70510569289425      2.60442195900071      2.47929871230663
  C   2.55501543672090      1.84372222011130      2.47407917595842
  C   3.86069243728608     -0.17306651798368      2.69717820814792
  C   2.60360433629971      0.44212593757245      2.59914713204853
  C   7.29609064749672      5.95907753429963      2.34437725243488
  H   12.94415904807244      4.82451809616326      6.79589874852227
  H   12.75426716160215      2.33200898932478      6.99936831914810
  H   11.31847777236030      6.03191157449428      5.37279768933006
  H   10.93916787306127      1.17373269056777      5.75778595240060
  H   10.32626187595267      6.74290772791756      3.61660613031665
  H   8.53308027599368      7.71583155682342      2.21530048295605
  H   5.99412164028563      0.11494135409299      2.82571737009927
  H   3.65845680906479      3.68302656932795      2.39059605730828
  H   1.59377697361516      2.33344153776285      2.35471343682297
  H   3.92391124259539     -1.24962143040665      2.81573523188449
  H   6.47555099779204      6.33540153661429      1.74518212550833
  C   11.37382424120335      1.99830074668622     -0.45013490763818
  C   10.47464538389224      3.04741129444218     -0.31628199726733
  C   11.42337161631586      1.02710057942963      0.54104402385053
  C   10.57190763391524      1.13677469817804      1.64176292072419
  N   9.69396691250544      2.15034322312911      1.76934348699574
  C   9.65727703198966      3.07514515198539      0.80888592354958
  C   10.56141324549562      0.14100747338295      2.74144233123041
  C   11.58778012986932     -0.79231406060321      2.94069866633655
  C   11.48507849254879     -1.68999850385617      3.99562242797179
  C   9.42030192369593     -0.65216791618996      4.58089709156480
  N   9.50455012167887      0.20224781142728      3.55924485179820
  N   8.30415967732801     -0.60834127574755      5.44383552613459
  N   7.62432591429341      0.45102342165803      5.35698164409798
  C   6.43357019124303      0.44805904475441      6.10269470610272
  C   5.60781179445719      1.56590151714640      5.93545880209849
  C   5.99924689794029     -0.62405098187059      6.90129392712535
  C   4.73190789810011     -0.59771914936218      7.44575742695109
  C   4.32581257195918      1.56850755961653      6.45651593434972
  C   3.85206918730559      0.47092665599136      7.18871599916245
  C   10.37675676956700     -1.63868450519326      4.82993112637882
  H   12.02425324810280      1.93078149726883     -1.31550073698481
  H   10.40125626945891      3.82634860512934     -1.06646184034821
  H   12.10387678380878      0.19027613676223      0.44220632364959
  H   8.93772535721745      3.88070765640437      0.94194493337074
  H   12.45564609644118     -0.81570088542177      2.29387818881119
  H   12.26742059563398     -2.42207983988279      4.16473788090015
  H   5.98257115173417      2.40564264863526      5.36013115465898
  H   6.65140940923098     -1.47629275753988      7.04838929152900
  H   4.37688143166656     -1.44344224678551      8.02690174520722
  H   3.67808777427155      2.42398052326592      6.29514218505275
  H   10.24415501764660     -2.31731626864080      5.66407495020748
  Li  8.56999731638982      2.06086299247435      3.67256246879699
  C   6.89606077426881    -11.88756605461616     14.60265319422929
  C   5.66340231747757    -12.40078037419096     14.22270809226672
  C   7.56081951259428    -11.03026301094732     13.73608838320169
  C   6.97181966424497    -10.71377170107199     12.51056177299798
  N   5.77154863838506    -11.20265002212320     12.14536509357131
  C   5.14490658302400    -12.02536984766163     12.98776936786720
  C   7.61716690589645     -9.80477414970219     11.53219040777127
  C   8.97831829705754     -9.47454260830780     11.58594327742900
  C   9.49851154567148     -8.60193418785319     10.63938629783542
  C   7.32780707832456     -8.49741810358934      9.65767054763072
  N   6.81693949585810     -9.32633773726726     10.57135117856443
  N   6.49986109578884     -7.95490166050287      8.65260596582406
  N   5.40785735482252     -8.56317361070246      8.48553499806417
  C   4.51841529079557     -7.93015788345316      7.59819515181083
  C   3.30687936969737     -8.58737282809181      7.35565737895674
  C   4.73838004647447     -6.65821723276731      7.04369894641138
  C   3.74271252061961     -6.05008587088367      6.30982063802644
  C   2.31089390803825     -7.96667325580219      6.62038947272513
  C   2.49599260782145     -6.67437102258278      6.10415487367156
  C   8.66127750202348     -8.08217625435049      9.66222134672881
  H   7.33309991064711    -12.14386849804027     15.56170547851100
  H   5.10905784481715    -13.07255266821338     14.86792165562297
  H   8.51252269520363    -10.60172014553506     14.02535126043997
  H   4.17823799912088    -12.40491264946476     12.66295863477570
  H   9.62393139174227     -9.89628556614637     12.34572488396645
  H   10.54843225407404     -8.33094977012723     10.66679303904866
  H   3.14939324340218     -9.56890491158879      7.79212957571908
  H   5.68667763080163     -6.16227810356738      7.21162015054389
  H   3.92751494500887     -5.07383345448510      5.87348990330435
  H   1.35612632908457     -8.46548196669150      6.49417688630167
  H   9.00952768338830     -7.38948615013814      8.90544145714375
  C   7.80462605196880    -14.10977464376962      7.86661712445883
  C   8.36300321437643    -12.83919433497003      7.89853719082837
  C   6.55399697410625    -14.30704652955434      8.43634670186806
  C   5.89881915880871    -13.22472002918525      9.02637095409453
  N   6.43601725476210    -11.99016269137775      9.05089517456678
  C   7.63746276604225    -11.81550973843884      8.49894392807854
  C   4.56108134681035    -13.35197293796842      9.65479506453425
  C   3.99842802638402    -14.58634207624603     10.00691039303141
  C   2.73467322507748    -14.61022280710090     10.58249966933533
  C   2.71383780123864    -12.22913999153569     10.45405417912846
  N   3.92244042939451    -12.19911331593682      9.88779358551515
  N   2.01199384739177    -11.02672782138020     10.68588129030304
  N   2.72360888966817     -9.98711627655133     10.62806919928651
  C   2.00399365197645     -8.78156466756470     10.71014604036169
  C   2.74498460499661     -7.61388488645075     10.49461782534620
  C   0.61264072069855     -8.69843888375522     10.89127558486586
  C   -0.01682871768498     -7.47552648576329     10.78056425594628
  C   2.10046050325934     -6.39779113266643     10.34648232661847
  C   0.70563829788635     -6.31255760083136     10.45373379617486
  C   2.06265717952404    -13.41539804177704     10.79965393529135
  H   8.33007255334797    -14.93604869310121      7.40011024660491
  H   9.33615626063899    -12.63956336906080      7.46490794115045
  H   6.09417729134181    -15.28710247263850      8.40084405184330
  H   8.04357438484249    -10.80652917379500      8.53551072588650
  H   4.53717927044071    -15.51141518938710      9.84594404869326
  H   2.28048061753388    -15.55552218720343     10.85947887959169
  H   3.82317249228687     -7.69214461511537     10.40775809736177
  H   0.04615853135333     -9.60146748560391     11.08339232233217
  H   -1.09595124432697     -7.41212611171507     10.88429451528925
  H   2.67645530065075     -5.50028463675658     10.14597981125418
  H   1.07236462734378    -13.37598160944555     11.23751001348545
  Li  5.17154559476074    -10.54168703090410     10.13857951951844
  C   -12.45530812238015    -12.99599570290850     14.48383239893055
  C   -12.69308884018988    -11.63695723340042     14.32137144886896
  C   -11.23260116277601    -13.51538202425135     14.07889691637931
  C   -10.29020141882472    -12.65238791941742     13.51266221269752
  N   -10.52897559854384    -11.34590881822466     13.32189981508479
  C   -11.69996117602912    -10.85900514099471     13.73189525829770
  C   -8.95541951919297    -13.13625707875166     13.08116771635915
  C   -8.33118826805419    -14.22984752539021     13.69966578161040
  C   -7.06811208524442    -14.61788817721972     13.27623690423387
  C   -7.15117914123654    -12.84705375506907     11.68207771731899
  N   -8.36578906158990    -12.46156014702227     12.08926532419907
  N   -6.50055519153330    -12.15337298110294     10.64158232873652
  N   -7.24083650780528    -11.36269759050874      9.99040415932205
  C   -6.57333049740503    -10.57183970808969      9.03999120686994
  C   -7.37699752473944     -9.81000098822230      8.18346018039227
  C   -5.17647033471011    -10.43482072738124      8.98238649783764
  C   -4.61363121551314     -9.52680509776332      8.10995901556810
  C   -6.80239141089561     -8.90969169368941      7.30436341416019
  C   -5.41010610548408     -8.73080293713185      7.26306607313844
  C   -6.45184850632565    -13.91184188087740     12.25208830931229
  H   -13.20676132948897    -13.64248603873423     14.92470828727261
  H   -13.62512970348537    -11.18626344059530     14.64393671065476
  H   -11.02714468188213    -14.57484368683075     14.18318450602418
  H   -11.85221071294417     -9.79066287341222     13.58543181732224
  H   -8.81087203687370    -14.73944096155250     14.52648094291164
  H   -6.56338174800534    -15.45118074508301     13.75293029680634
  H   -8.45618613486590     -9.91397003893857      8.24353921330460
  H   -4.55682540728690    -11.03337694707541      9.63921657634250
  H   -3.53343501534934     -9.43226838839516      8.06598971234064
  H   -7.44130333226729     -8.29301802468255      6.68192262683937
  H   -5.46292256801815    -14.16050971404655     11.88609773108221
  C   -11.18959910231097    -15.83809642640453      9.80407729832646
  C   -9.83866223465202    -15.67358909526423      9.52632283287550
  C   -11.96346063375002    -14.71640158355596     10.06999182765078
  C   -11.36057190460946    -13.45681328870499     10.05183695552055
  N   -10.04670203886131    -13.29976015730895      9.80600370571968
  C   -9.31640482969602    -14.38438940473967      9.54604816839077
  C   -12.11423434952237    -12.20133066807330     10.30301825324569
  C   -13.50981685742073    -12.14650352550937     10.42760781289137
  C   -14.11896535467766    -10.91562735089686     10.63241364620372
  C   -11.95624513616032     -9.91805360372992     10.58787095143786
  N   -11.36763491920753    -11.09719266006597     10.38816819341952
  N   -11.17588836442300     -8.74424277883683     10.65945799505966
  N   -9.93326290609930     -8.95111776790564     10.73422901648731
  C   -9.13565336527066     -7.79545275516661     10.67582105974631
  C   -7.76246256227143     -7.98345564571013     10.87095315805881
  C   -9.62150410396277     -6.51699428791341     10.35152065216484
  C   -8.73480805217869     -5.47359356542538     10.17637454038319
  C   -6.87969154008232     -6.93709490894526     10.67342733371862
  C   -7.34628926248161     -5.66983694592482     10.29579550705706
  C   -13.33840976022529     -9.76958298914696     10.70523765433184
  H   -11.63819024210570    -16.82571174990419      9.81048734494455
  H   -9.20153026681108    -16.52103743671533      9.30069196487593
  H   -13.01720697867717    -14.83217518080782     10.29160424138266
  H   -8.26027038878509    -14.21487349543984      9.34264424943183
  H   -14.11590163789969    -13.03952456330318     10.34634369739564
  H   -15.19797223976115    -10.85226424710149     10.72371635871751
  H   -7.40760982795046     -8.96294359570978     11.17066939140384
  H   -10.68561040099914     -6.37430704608084     10.20694160870305
  H   -9.10605965130691     -4.49511595055455      9.88699352195241
  H   -5.81563956381547     -7.09411847976714     10.81655230885337
  H   -13.76348246482111     -8.78410496442004     10.85425503935035
  Li  -9.34857673341866    -11.27811309487789     10.69867730662513
