425
Coordinates from ORCA-job ORCA
  C   -3.54134938761832     -2.12786225191052      3.08264606745853
  C   -4.32724038025087     -3.14636169829420      3.61605794951675
  N   -2.21128909469718     -2.49645591439811      3.23967995167559
  C   -2.14223758678239     -3.72816557201288      3.87982055027487
  C   -3.44641907813194     -4.15426780132605      4.11753503725348
  C   -4.61585213543057      1.76970502806273      1.65071668892721
  C   -3.68464426836795      0.98653443944825      0.95253958714837
  C   -5.24077952501462      1.19782169084892      2.77102869541045
  C   -4.90620386244695     -0.07008767438633      3.21037761437131
  C   -3.35899706109172     -0.29083197568837      1.38093565543932
  C   -3.94011094382810     -0.83252059873765      2.53710768384921
  C   0.08772803166884     -3.63556277137451      5.01781954310696
  C   -0.89881040890084     -4.35460251283458      4.32422434029774
  C   1.18367763348924     -4.28120451675362      5.56452714529229
  C   1.34293467319283     -5.67226350585471      5.45132721960296
  C   -0.71229938456170     -5.73547036237602      4.15917633058958
  C   0.38021215985632     -6.37999598283281      4.71494208048586
  C   -3.85502838616165     -5.35516415864154      4.85497588140410
  C   -3.25612854610526     -5.68531720541643      6.07848620875458
  C   -4.90780842897933     -6.16190200823039      4.40079772860706
  C   -5.37951915625560     -7.21827721818774      5.16428850414911
  C   -3.71759747334293     -6.74950797174666      6.83389519432850
  C   -4.81054105360718     -7.52248037051772      6.41001291320371
  C   -6.60876268295486     -2.70605492131092      2.67740314461957
  C   -7.97436782211759     -2.54463055905889      2.85126820248916
  C   -5.78806742631164     -3.10847581280091      3.74017185716988
  C   -6.39937734442276     -3.41323701703054      4.96424308713868
  C   -8.58120082826597     -2.79906486626320      4.09055753341275
  C   -7.76560589751909     -3.26863173188232      5.13227980387144
  C   0.15905261756131      0.34586364659936      3.29408618851455
  C   -0.99904247717981     -0.39308770383898      3.46979630728375
  C   1.27047566567025     -0.18996524582759      2.62431343527149
  C   1.14591531819154     -1.46933729362301      2.06332611291580
  C   -1.07869572696061     -1.68583317766935      2.95288249267897
  C   -0.01804522089227     -2.20755278245641      2.21441757443842
  H   -3.22765262916574      1.37226783515724      0.04719553416592
  H   -5.95571750383927      1.77676132170859      3.34701085302016
  H   -5.37361747696771     -0.46893840627561      4.10488943485206
  H   -2.64499861692174     -0.87766991075745      0.81262804775851
  H   -0.02313842954450     -2.56610640870641      5.16769070015475
  H   1.89363560884028     -3.69889896330821      6.14413673916030
  H   -1.44392839220181     -6.30416595628224      3.59525853557025
  H   0.50121628334290     -7.44621259904910      4.55480183950257
  H   -2.43970008245705     -5.07665271680423      6.45453574387769
  H   -5.36560235531811     -5.94663909705608      3.44090613478456
  H   -6.18863445956043     -7.82967588911502      4.77839230435234
  H   -3.25809626082502     -6.94611232139122      7.79791633590134
  H   -6.16338514241630     -2.50819835280409      1.70789322350399
  H   -8.58337908293333     -2.23922566168263      2.00662154330641
  H   -5.78758170747181     -3.73396944860737      5.80135732838083
  H   -8.19602763746439     -3.46834392979599      6.10869795210436
  H   0.21723391988133      1.33306694257402      3.74168326135829
  H   -1.83256034100625      0.01835299709439      4.02963599038343
  H   1.96373477368783     -1.88669156822128      1.48577501431418
  H   -0.10109671205977     -3.19813777268457      1.78085272586292
  C   -18.71676659373115     -0.53267740769974      1.60501506124260
  C   -18.49067433110273     -1.40136002703564      2.66410673170519
  C   -17.95714990428677      0.62586330335212      1.51458594678541
  C   -16.99405461474517      0.88376170919509      2.49162502712618
  N   -16.76783932343982      0.03803863244290      3.51468222451261
  C   -17.50494323156962     -1.07123654744450      3.58843850570092
  C   -16.14047130630397      2.09638035150925      2.46371692601276
  C   -16.44528209588735      3.22266377929588      1.68760030098240
  C   -15.58200172521943      4.31021492035442      1.71095915136283
  C   -14.23988292300348      3.11302804074972      3.27726448516242
  N   -15.05736329239247      2.05797909322203      3.24927039525603
  N   -13.07890710491675      3.08802378868069      4.07916215608128
  N   -13.07097838712724      2.18406342609977      4.95862978783284
  C   -11.85898673354217      2.06264926007009      5.66067884011733
  C   -11.77075610015912      0.97800313816213      6.54088932326531
  C   -10.73853755643038      2.88660264168439      5.45694464040220
  C   -9.54267421564210      2.57357797367752      6.06959820380393
  C   -10.55726298481933      0.64975466139013      7.12066703630754
  C   -9.41487869448779      1.42178104906702      6.86853373967812
  C   -14.44454924204046      4.25835439392500      2.50422889346397
  H   -19.46767732694542     -0.75524079715715      0.85460496337039
  H   -19.05941773338730     -2.31753815322497      2.77374948101906
  H   -18.10452688062185      1.30376422139568      0.68275892204176
  H   -17.29778716171322     -1.73283809777218      4.42711956362245
  H   -17.34299403984824      3.25739847633309      1.08354605918134
  H   -15.79792866286493      5.19009317075125      1.11451601316619
  H   -12.65994663605542      0.38434617359031      6.72276816242337
  H   -10.81885123363703      3.73886009804347      4.79330658835387
  H   -8.66486680488514      3.18580431547319      5.88616476747002
  H   -10.48471098532476     -0.21245321083979      7.77546161244635
  H   -13.73245769049522      5.07334780728435      2.55537009071967
  C   -18.43607277989311      3.69982338250067      7.36086349676562
  C   -17.60555217008196      4.31808155184117      6.43618839861757
  C   -18.31366869489375      2.33165568192534      7.56219076296772
  C   -17.36286677129089      1.61999733707382      6.82832096074250
  N   -16.55155342032289      2.21974217871165      5.93701612382273
  C   -16.68046464630009      3.53467774433599      5.75399373721401
  C   -17.16799922294733      0.15867668060785      6.98971753335599
  C   -18.11488688141730     -0.66870632615337      7.60869871957398
  C   -17.84385269986551     -2.02448721955302      7.73799311962607
  C   -15.77862206602028     -1.63865983711799      6.60941937857062
  N   -16.02644756626193     -0.33190649615546      6.49057054118335
  N   -14.56884279873462     -2.17728295887657      6.12490477544216
  N   -13.95633967958261     -1.44392366378637      5.30136130560511
  C   -12.67859130809277     -1.91186238036240      4.94558833477753
  C   -11.98362433767019     -1.16723142632930      3.98553325600420
  C   -12.04642146447028     -3.00316698177079      5.56505818565916
  C   -10.73786776113635     -3.30325058330043      5.25430086534688
  C   -10.66881419767441     -1.47653956250002      3.67990222814485
  C   -10.00861694221493     -2.53491131001773      4.32454592178497
  C   -16.64648079591987     -2.52688548118298      7.24926841562711
  H   -19.16536284899608      4.27285841471615      7.92321028803463
  H   -17.66507856520738      5.38390478460632      6.24818170804829
  H   -18.93720790980551      1.83727861892681      8.29699192935955
  H   -16.01073375487587      3.98833658812515      5.02620776751431
  H   -19.04979072677286     -0.26631469303524      7.97742616910103
  H   -18.56250744679883     -2.68078983437569      8.21690554612455
  H   -12.48248795778918     -0.32298842617043      3.51963817456171
  H   -12.59416429361795     -3.59120834983201      6.29140535126293
  H   -10.26293089958817     -4.15689844200638      5.72670637840159
  H   -10.12730785718402     -0.85668527245232      2.97356741177738
  H   -16.37651724695752     -3.57286875718651      7.33258974246529
  Li  -15.22807099961927      0.79025748464609      4.90674048793113
  C   -2.93093932115406      0.35072315887477      8.02803303238979
  C   -4.13993193337026     -0.31582524079692      8.39885846052547
  C   -1.86616641432811     -0.45573102805083      8.42348727510727
  N   -2.39978821205288     -1.58598881446847      9.03238042604562
  C   -3.78678552791959     -1.51401495845406      9.01477160404498
  C   -2.53914419583101      3.93202024065985      5.69370462213975
  C   -3.46007423612797      2.93505193848697      5.34626230676594
  C   -1.77214839840278      3.75385135960247      6.85275734431208
  C   -1.92503931254680      2.61893128862021      7.63746588183926
  C   -3.58825869759584      1.78865028850738      6.11275453069592
  C   -2.82066500957096      1.60457533603106      7.27132474030311
  C   -0.78026043140716     -3.32488187659571      8.53524917473590
  C   -1.64459250408125     -2.72012272970125      9.44603715201977
  C   -0.03127094967923     -4.42321259388216      8.92104418854687
  C   -0.16295132663863     -4.96449488153640     10.20601781456275
  C   -1.77938122137929     -3.23625250308902     10.73308220904579
  C   -1.05770169799560     -4.36625872359978     11.10041760425877
  C   -4.65940327014355     -2.59452445088014      9.47528517595167
  C   -4.43652195534358     -3.92445799789721      9.08879630696881
  C   -5.80180896564125     -2.30837098856609     10.23791330952625
  C   -6.70672964936217     -3.30678071895526     10.56696295461632
  C   -5.32283142988746     -4.92554504821175      9.44717485820058
  C   -6.48235679077853     -4.63374174519943     10.17670012425127
  C   -6.42791732921709     -0.75860885258933      7.52063907257408
  C   -7.70033590397673     -0.33959209027047      7.17170208118297
  C   -5.50480988094709      0.12990015487195      8.08944394558407
  C   -5.90659310201600      1.45764771729517      8.29247053206470
  C   -8.09102006253979      0.99433283105057      7.34780079856654
  C   -7.17154651925846      1.88668249218902      7.91407427493449
  C   1.33250564336675      0.33788782628187      6.64174934855305
  C   -0.01099659323602      0.18775152710123      6.93088519686219
  C   2.31402366462242     -0.00688336628138      7.58040010996574
  C   1.89830719839708     -0.46731304888295      8.83611069603822
  C   -0.43455984426588     -0.27481082954610      8.18606533409030
  C   0.54845461711097     -0.57793306754379      9.14163574449763
  H   -4.03589277142998      3.03969249130279      4.43165994998430
  H   -1.07564108345618      4.52850731895638      7.15924230263862
  H   -1.33900573108569      2.50768237622256      8.54400652401300
  H   -4.27510259369288      1.00882923852770      5.80278654681201
  H   -0.70018114147066     -2.93368587902715      7.52776729343725
  H   0.63146146939581     -4.90034825015459      8.20555003867812
  H   -2.45008879112523     -2.75688361061292     11.43793764419003
  H   -1.16150079599871     -4.76525114205679     12.10455221972421
  H   -3.58398714526993     -4.17039363160861      8.46668980158043
  H   -5.98189147473263     -1.28854483208356     10.56097383740716
  H   -7.58367732618217     -3.06139077854059     11.15813120355267
  H   -5.15761299452849     -5.94015870896400      9.09801779474061
  H   -6.12941510229961     -1.78305623027919      7.32867349402313
  H   -8.38566842560983     -1.03386972573818      6.69511200016093
  H   -5.21520132810151      2.15899300106809      8.74793130696306
  H   -7.46174503278376      2.91865111185830      8.08704941938869
  H   1.63896669761105      0.66125856176272      5.65165892249796
  H   -0.75125875610383      0.40618875976599      6.17102510937295
  H   2.63946395541882     -0.70721721877717      9.59252804438246
  H   0.25312955122078     -0.90625834532366     10.13237071130206
  C   -4.54840114969502     10.57538817687949     -4.33773838455460
  C   -5.67473991380505     10.34154527583799     -3.56078643965571
  C   -3.29391162707570     10.39311583330997     -3.77161558424067
  C   -3.20322052638402      9.98408845555803     -2.43995529267782
  N   -4.29492555122584      9.74812059725744     -1.68797395841747
  C   -5.49336326435934      9.92756202544439     -2.24517581637616
  C   -1.90139887758731      9.76554806712191     -1.76359819962559
  C   -0.69117666633680     10.26445833746464     -2.26431940690140
  C   0.48329102828529     10.00301102439110     -1.57108068181033
  C   -0.82247300361631      8.83604491225686      0.04785610786579
  N   -1.95408555366855      9.07209104131973     -0.61983124854898
  N   -0.84691961258252      8.08440848115822      1.24243244562646
  N   -1.99163310608493      7.94856772628505      1.75349248469069
  C   -2.03579023271459      7.08096345908993      2.86012602711303
  C   -3.31214829499868      6.77671302125784      3.34681198739965
  C   -0.91025342351755      6.45153283316967      3.41932699565777
  C   -1.08163357459506      5.48619067949863      4.39019941721338
  C   -3.47703686455748      5.77726024377925      4.29071757254592
  C   -2.36774457463918      5.09251330780325      4.80497909950434
  C   0.43059546029877      9.26072111415468     -0.39957813196196
  H   -4.64198102036048     10.88953962402906     -5.37167828330510
  H   -6.67352566568446     10.47010135207982     -3.96179020597308
  H   -2.40498999599800     10.54998474141821     -4.37028941701836
  H   -6.35514695868868      9.73020789821530     -1.61083005672425
  H   -0.66414757961484     10.85475335465428     -3.17141659356255
  H   1.43057829802103     10.37763360145527     -1.94374145672841
  H   -4.16396048523009      7.31123330815010      2.94087406346539
  H   0.07769453439787      6.71055442081538      3.05854611633509
  H   -0.21679490384253      4.97478852658968      4.80262632680338
  H   -4.47186001724694      5.51991701283214      4.63941620376480
  H   1.31554791677889      9.01991318807621      0.17727140341404
  C   -3.19363417070736     13.90472098797713      1.85692064823269
  C   -2.04059925785090     13.17619609824818      1.59877002099090
  C   -4.42598015740585     13.28077118171573      1.71733327100212
  C   -4.46858126024552     11.94337431337307      1.31928171944467
  N   -3.35062286402106     11.23340392630159      1.07594891532383
  C   -2.17399758174291     11.84600287331807      1.21444606130208
  C   -5.74432188094946     11.20547846575561      1.15262774036724
  C   -6.98660294976564     11.84704264744904      1.05288481476103
  C   -8.13427162308659     11.07733014352679      0.91527325064583
  C   -6.74354288689394      9.14083027365995      0.94066324688570
  N   -5.63633606316951      9.87300224041372      1.08492441923400
  N   -6.65994435622462      7.73392747950341      0.89910344148487
  N   -5.50774548773643      7.28083048975554      0.65850077916407
  C   -5.39602000746811      5.88364732116194      0.78102064769624
  C   -4.14742116731214      5.32749099425987      0.48032503319872
  C   -6.41842655216969      5.05995705969222      1.28131597973337
  C   -6.16777050925567      3.72592157945398      1.51823064213112
  C   -3.90470178280273      3.98559817154732      0.72254708731479
  C   -4.89956924662191      3.16190771951763      1.27295223023353
  C   -8.02424165431922      9.69464307221147      0.87579013852104
  H   -3.13762842367473     14.94197718936448      2.16904014012261
  H   -1.05754448601456     13.62221027261568      1.69656550032176
  H   -5.33426618624847     13.82834340023090      1.93708786761438
  H   -1.29005990945337     11.24544544392149      1.00965945573696
  H   -7.05991826960752     12.92692316693892      1.07362257597206
  H   -9.10513022563106     11.55522240464365      0.84069132163131
  H   -3.36579102585792      5.97732194897611      0.09881092638527
  H   -7.39120198189711      5.48832997185654      1.48991015725641
  H   -6.96733169283450      3.09472915404172      1.89182870559431
  H   -2.91432702198892      3.58313364156285      0.53937939469524
  H   -8.88557076765700      9.04427352570032      0.78071762771485
  Li  -3.78541904761799      9.17773529914106      0.38675299701203
  C   12.37985512283487      3.40554226204063      6.34865672672024
  C   12.18533644810533      2.03186642804137      6.30444202823428
  C   11.48859595395375      4.23054838632426      5.67591037152311
  C   10.42766126797831      3.65477945069001      4.97451324490506
  N   10.23170921143813      2.32299208473724      4.93981529238081
  C   11.09651668113625      1.54296815330472      5.59010749276154
  C   9.43526623271217      4.46811418645667      4.23028154241140
  C   9.65332220315277      5.81211325492380      3.89508012948860
  C   8.66518476381427      6.50590077324213      3.20996952811516
  C   7.37217648130490      4.50287829987115      3.20685543300975
  N   8.31234967420721      3.83137840984774      3.87625852507388
  N   6.16581817043680      3.86386828990852      2.84803105533554
  N   6.20239135711975      2.60522410611562      2.89898298755226
  C   4.95902903857480      1.97686606920789      2.69227857099465
  C   4.96431891077667      0.57786195269947      2.68392970428234
  C   3.73877933947635      2.66605311171153      2.59896391509759
  C   2.55592874979773      1.95919611222883      2.53981546178539
  C   3.77139206741278     -0.12339895748388      2.62530609339233
  C   2.54158522898672      0.55117363487440      2.57448144161542
  C   7.48877772594240      5.85264579396957      2.86923708608254
  H   13.20893263645692      3.83209379847732      6.90284082745076
  H   12.85622445662358      1.35050117210472      6.81488744422891
  H   11.61337251453980      5.30554539407674      5.71831245291625
  H   10.91235272897999      0.47166156778252      5.54045658310860
  H   10.57934207728726      6.30818719061320      4.15645249533908
  H   8.81364672980839      7.54744349565344      2.94611637561691
  H   5.91466936343532      0.05900645112494      2.76373172967685
  H   3.74009444818874      3.74927892157368      2.58699234769867
  H   1.61855574577042      2.49925083106158      2.45291196614340
  H   3.78915507538970     -1.20675229090767      2.67465385501656
  H   6.67942895610276      6.34646804601999      2.34494849337597
  C   11.15295060187390      1.85207954303702     -0.51383012387986
  C   10.35425283419758      2.95542548565307     -0.24601389256617
  C   11.15070803865579      0.78953141373328      0.37999966278684
  C   10.34941554017213      0.86422128053067      1.52068818087968
  N   9.56712577905183      1.93014379394008      1.77653752752989
  C   9.57940873638191      2.94318840131310      0.90911024380480
  C   10.29164243304141     -0.22686493733442      2.52422687732295
  C   11.24767762368414     -1.24956073995703      2.59492449736967
  C   11.11015220658006     -2.23373294487460      3.56488823374330
  C   9.15242685419605     -1.10500043553512      4.32584385003383
  N   9.26955032108724     -0.16385058654544      3.38618769422441
  N   8.06848991706808     -1.07142538060994      5.22964548354292
  N   7.45916177103022      0.03201624201464      5.27092282489271
  C   6.28937164410783      0.02530039527747      6.05074701718895
  C   5.49751378163047      1.17577626219328      5.96283039354681
  C   5.83744904736011     -1.07423734329112      6.80108584447599
  C   4.58053450682503     -1.03953493942706      7.37089105726165
  C   4.22143514449781      1.18426658004177      6.49810100931311
  C   3.72694039931589      0.06278714165260      7.17756694000977
  C   10.03680403930558     -2.17939132310145      4.44310890812722
  H   11.76580162314949      1.81365903746764     -1.40793252846311
  H   10.32506499091293      3.80663098711837     -0.91645307094730
  H   11.75199256938630     -0.08778518549361      0.17526911570146
  H   8.93811185400806      3.78983341776702      1.14639042852688
  H   12.08953690897368     -1.27521185427509      1.91480913361253
  H   11.83753746324772     -3.03551001645125      3.63296613665004
  H   5.88816915820532      2.03511241591055      5.42914070002847
  H   6.46764938284614     -1.95049580351243      6.89346251620466
  H   4.21205557360996     -1.90043724251025      7.92147384182152
  H   3.59353916870625      2.06246701064210      6.38860318878239
  H   9.87680153814144     -2.92448391308920      5.21325352253708
  Li  8.50190607642355      1.75322455885287      3.69660147599922
  C   7.11441920327994    -11.40310596487605     14.65492258476665
  C   5.88826083905665    -11.95941897686244     14.31714881799214
  C   7.73538375450470    -10.55165187495243     13.75115123726145
  C   7.11081333805871    -10.28320131298890     12.53159536701865
  N   5.91657871415112    -10.81342744044963     12.20758667212663
  C   5.33228023818886    -11.63074324739017     13.08539649750940
  C   7.71106965852698     -9.38292828631178     11.51734727563176
  C   9.06768408254518     -9.03072757201125     11.53281532530236
  C   9.55095771461140     -8.16214147488492     10.56380022629101
  C   7.35395861489412     -8.10468559486805      9.63571184537890
  N   6.87799910302788     -8.93387874551651     10.56894197428307
  N   6.49901985112391     -7.57856217512110      8.64513678194779
  N   5.41201832806809     -8.19988123114009      8.49680616293944
  C   4.50216873221982     -7.57726640161518      7.62208762302825
  C   3.30367718404088     -8.25810802840412      7.38009689786277
  C   4.68955344303665     -6.29449622427603      7.07985798222684
  C   3.67943631581434     -5.70354849837343      6.35121330997011
  C   2.29393466337797     -7.65598351653692      6.64830559950432
  C   2.44918821676949     -6.35737436216903      6.13629209941981
  C   8.68013953563279     -7.66682484050879      9.60415916377888
  H   7.57987076377884    -11.62185340691657     15.60988148744089
  H   5.36717261447346    -12.62881170203127     14.99186539779553
  H   8.68058655766101    -10.08976677951762     14.00853296765762
  H   4.36991234921086    -12.04547858986598     12.79291273180448
  H   9.73814402667294     -9.43293893368058     12.28148959845150
  H   10.59666673454721     -7.87411291402927     10.56178725788460
  H   3.16864272858538     -9.24521327460841      7.81173435059128
  H   5.62631567671496     -5.77790613807357      7.25085884349477
  H   3.84136252733143     -4.71949354631859      5.92296868154543
  H   1.35150451041835     -8.17663541663809      6.51792058043345
  H   8.99611033410136     -6.97476923575233      8.83281931967234
  C   7.94189889876620    -13.74821982297885      7.95168303021394
  C   8.45461234194633    -12.45826295232967      7.93927606698403
  C   6.71397788937446    -13.97594443126072      8.55846490613662
  C   6.03516677536020    -12.90364544933393      9.13980296992804
  N   6.52839552377387    -11.65050497414787      9.12225854103421
  C   7.70838665046885    -11.44670428211291      8.53490937232438
  C   4.71921651084519    -13.06287270687040      9.80598398083560
  C   4.20495864251682    -14.30856987356984     10.19234087288424
  C   2.95810245611963    -14.36325444287822     10.80092036424357
  C   2.85856130736240    -11.98700274274283     10.63602809995780
  N   4.05004929059823    -11.92745919048730     10.03744998359145
  N   2.12377738919975    -10.80325272106142     10.86934115852538
  N   2.79427365727393     -9.74240262473921     10.76069899241913
  C   2.03126297580636     -8.56125575557189     10.84667409463402
  C   2.70495414645853     -7.38315080592505     10.50939718009210
  C   0.65778294531564     -8.52054847961544     11.13938795555455
  C   -0.03014563114614     -7.32989019966704     11.01030796684701
  C   1.99759399152766     -6.20608546489023     10.33045679221411
  C   0.61519900127632     -6.16999216150395     10.54692017632810
  C   2.25418240143266    -13.18640603866155     11.01732253935608
  H   8.48488754549121    -14.56648920527341      7.49120421596654
  H   9.40844979044259    -12.23481537789579      7.47543407276017
  H   6.28963312208382    -14.97244052592816      8.55765124731512
  H   8.07848526545593    -10.42337673664504      8.53785262378773
  H   4.76794167872241    -15.21903903904416     10.03108456633685
  H   2.54146974791079    -15.31781140384575     11.10383948963525
  H   3.77517005129660     -7.42602601174632     10.34317924616526
  H   0.14731120538412     -9.43012147647429     11.43159771308690
  H   -1.09788158405198     -7.29699352082330     11.20609395651134
  H   2.51318916333983     -5.30507832713202     10.01346566326958
  H   1.27451100091361    -13.17085707688193     11.47984281880473
  Li  5.25105200998576    -10.22570219582659     10.21130041045413
  C   -11.96087733126616    -12.34189836868068     15.11863746839482
  C   -12.62967744905906    -11.60592297180612     14.15005624672249
  C   -10.66635052563541    -12.77128416993263     14.85901218375580
  C   -10.07874676115378    -12.45303153133905     13.63312908930292
  N   -10.72295523022569    -11.73125918452137     12.69688217527828
  C   -11.96618262106771    -11.32600122703542     12.96001413828482
  C   -8.70012948687348    -12.87205979946582     13.28215619994121
  C   -8.01786681193357    -13.88537490827238     13.96891178640044
  C   -6.72121574661712    -14.20373826563648     13.58745417535968
  C   -6.90185197917616    -12.54941707998745     11.87919455229320
  N   -8.14527959569509    -12.22953214293384     12.24647658132157
  N   -6.27955229437434    -11.86689732296191     10.81327819228789
  N   -7.06934712171762    -11.24044286376061     10.05524930514588
  C   -6.43522761888555    -10.43672722085324      9.09052332739913
  C   -7.27010575211792     -9.76740013367630      8.18827064343682
  C   -5.05029889836185    -10.20202384428909      9.05541299948584
  C   -4.53292136395670     -9.28766416929819      8.16321229908900
  C   -6.74119483216295     -8.84969223355183      7.29632236880305
  C   -5.36473457401747     -8.57165350031796      7.27873629847730
  C   -6.13472607449424    -13.51499014221057     12.53543921845779
  H   -12.43497680478054    -12.57431936889955     16.06609275724822
  H   -13.64074050266873    -11.24961014461739     14.31042405894958
  H   -10.12158007246185    -13.32668356412999     15.61261099100341
  H   -12.45997659652061    -10.74681757774299     12.18238662527254
  H   -8.49052105972292    -14.42415522810323     14.78020339232554
  H   -6.17525449471285    -14.98247234476475     14.10900460277032
  H   -8.33888810597026     -9.95354508913039      8.23111665747261
  H   -4.40404000174113    -10.73687801439842      9.74082066285618
  H   -3.46036784353780     -9.12587134295901      8.13196142292468
  H   -7.40808116861827     -8.29999474941540      6.64108981538352
  H   -5.12305665174643    -13.71280953316614     12.20182630387969
  C   -10.83179031697310    -15.92098822076085      9.03164821797664
  C   -9.57681900697914    -15.82491410234661      9.61707422338741
  C   -11.63033804581296    -14.78698035127453      8.96824694820105
  C   -11.14953826004609    -13.58813575872419      9.49746287768796
  N   -9.92919807760348    -13.49164520125271     10.05867027454959
  C   -9.17312196231453    -14.58898846423473     10.11184222220766
  C   -11.93928301114728    -12.33289912987421      9.46659517042313
  C   -13.31822499769777    -12.30355954928678      9.21621413687426
  C   -13.97274347157514    -11.07881671753951      9.19580526144344
  C   -11.88825746892229    -10.04168079889100      9.70901161664356
  N   -11.24962492076656    -11.21368671412993      9.71518065575559
  N   -11.17440253890093     -8.84781500657860      9.94749584094267
  N   -10.03215316474545     -9.01540018046575     10.45504920976447
  C   -9.26095397542823     -7.84329733325839     10.55452218877694
  C   -7.93298965439429     -8.02057595094071     10.95876746543372
  C   -9.71027081515955     -6.56474379125100     10.18209696613017
  C   -8.81700647897656     -5.51390401376275     10.14253409558357
  C   -7.03477899662521     -6.97038567646234     10.87584408114258
  C   -7.45368264808791     -5.70876008210803     10.43287758673570
  C   -13.25070266036607     -9.91653579425926      9.42922885703154
  H   -11.18405226526062    -16.86218573264996      8.62356363665327
  H   -8.91948157771268    -16.68397109869948      9.68673157335312
  H   -12.60349945245587    -14.83916354596499      8.49559673786410
  H   -8.19284951098635    -14.47878230300196     10.57147611860846
  H   -13.87473405740853    -13.21693080760450      9.04876235711057
  H   -15.03873628302380    -11.03472887080999      9.00011335455477
  H   -7.61809415010719     -9.00297817382172     11.29280554951199
  H   -10.74576875021288     -6.42681881216164      9.89587290431409
  H   -9.15127337391356     -4.53301665236465      9.81808046865760
  H   -5.99637557134987     -7.12293661639954     11.15149805065795
  H   -13.70862498666137     -8.93464519127138      9.41782252520253
  Li  -9.52702971553396    -11.46203092501837     10.86862847544166
