   425
 
C        -3.33684276948401        -2.13039069876908         3.26159629430799    
C        -4.16132725466868        -3.12538385473096         3.77123039553755    
N        -2.03221663646215        -2.53940862811010         3.40779381830871    
C        -2.00795115222933        -3.77578692739453         4.00743130471885    
C        -3.31790789188309        -4.16902666218448         4.24301149314938    
C        -4.31069890347019         1.74692410576153         1.76748827736018    
C        -3.32442899450672        0.975093625189288         1.15136405857561    
C        -5.03856293819660         1.17076974135781         2.81044848193595    
C        -4.72804157815011       -0.868291034801403E-01     3.28155480418825    
C        -3.04095120247315       -0.300283146363626         1.59276588964726    
C        -3.70451027711130       -0.838181792016704         2.69858983724997    
C        0.276386751946697        -3.85209225513845         5.01818860941231    
C       -0.803705335110809        -4.49141667209475         4.40596433113027    
C         1.33425189738145        -4.58233462161184         5.51933944421804    
C         1.33789471796975        -5.97717317862254         5.46316260499485    
C       -0.751757055114037        -5.88057058749560         4.26001399449492    
C        0.288979877233549        -6.60931612176598         4.79195875320142    
C        -3.78694047615545        -5.38127389113257         4.90799244520113    
C        -3.19007483592436        -5.84462872008873         6.08103811042089    
C        -4.89997144381194        -6.06498480206524         4.41634104413989    
C        -5.45489213161376        -7.11067072783653         5.12197840363139    
C        -3.73093443884669        -6.90888564432389         6.77252934753516    
C        -4.90225632764001        -7.53043017498103         6.33332103109024    
C        -6.37890222989805        -2.58420902861779         2.78995976580309    
C        -7.73968395517200        -2.40484800269558         2.91720744227396    
C        -5.61836605523883        -3.07044645683591         3.85470750970990    
C        -6.28343688870961        -3.45658190675370         5.01995520061179    
C        -8.39877695053053        -2.73593852285882         4.10277265458842    
C        -7.65034472836886        -3.30518169900838         5.13515426037187    
C        0.385923876346238        0.239975877688796         3.27131296744318    
C       -0.784324332064656       -0.458235411860560         3.48632710302639    
C         1.50427672031010       -0.385039782256945         2.71925742234230    
C         1.37434025892655        -1.70326101549274         2.27962750290784    
C       -0.883387652800205        -1.79123283939729         3.09689350389675    
C        0.189682003711487        -2.39190757671102         2.44207824191974    
H        -2.79342538859647         1.37132151855011        0.299300683286755    
H        -5.82728085049472         1.73119742727681         3.29132010754453    
H        -5.27306963385283       -0.491995643988184         4.12146819267119    
H        -2.29564989805461       -0.886301573482353         1.07612967732923    
H        0.278034013421546        -2.77773894592044         5.13271942634932    
H         2.14361366614730        -4.05990641804709         6.00866619143309    
H        -1.54857773813610        -6.38704497704010         3.73730760736993    
H        0.301628665640685        -7.68164512957336         4.67190218691846    
H        -2.30836013861533        -5.35126836594816         6.46492185151011    
H        -5.33822108435934        -5.76008276456784         3.47807253289205    
H        -6.31825327118482        -7.62136916596486         4.72374714739250    
H        -3.26514754913100        -7.22667478667334         7.69437407435310    
H        -5.89038553167523        -2.33386482508241         1.86040387616919    
H        -8.30640768402325        -2.02331522321204         2.08159264186539    
H        -5.72232062529125        -3.86091172559221         5.85063031082154    
H        -8.13300075448916        -3.58560261168108         6.06063279282704    
H        0.443485487080704         1.27174884747212         3.58279528562523    
H        -1.61995592846626        0.217027320204867E-01     3.97287417013875    
H         2.20396483372129        -2.18627731595462         1.78720075684235    
H        0.988593994484751E-01    -3.40615121098817         2.08474230332381    
C        -19.0851900669816       -0.243533337377451         2.62169353458195    
C        -18.1914216839946        -1.28545484318869         2.43483567468523    
C        -18.6034592498023        0.981724368640084         3.05204499001452    
C        -17.2370646078895         1.11689361110075         3.29346809993745    
N        -16.3883146206140        0.100600678491141         3.14539204273540    
C        -16.8510448054172        -1.05614479863386         2.71600723455194    
C        -16.6278338622780         2.37692677680827         3.74312404180215    
C        -17.2455424721621         3.62587604914345         3.60991202625549    
C        -16.5782769391705         4.75423930776989         4.05959043273666    
C        -14.7843089036400         3.33333278863544         4.71724065598866    
N        -15.4256020150916         2.25946831402308         4.27599547171208    
N        -13.5271048767400         3.18041095927125         5.24670247155145    
N        -13.2179878060228         2.02421715750637         5.64917613925361    
C        -11.9252511316494         1.85281494601482         6.08429712468642    
C        -11.6172418954031        0.636879182601555         6.70505574071756    
C        -10.9075509194514         2.80298490048853         5.89654171290207    
C        -9.61730040268939         2.52025807806661         6.28083236570047    
C        -10.3200355728104        0.354751608880658         7.06560135165193    
C        -9.29783129572247         1.28234891896184         6.84372121255234    
C        -15.3227496109572         4.62116923609751         4.62437715647985    
H        -20.1383263199634       -0.378342237274472         2.42710661408066    
H        -18.5228778140165        -2.24790390746530         2.08046013445638    
H        -19.2805320404756         1.80626253498817         3.20635921560236    
H        -16.1129744189095        -1.83618074654169         2.58611272353278    
H        -18.2111920549927         3.72055593852656         3.14163246382470    
H        -17.0333460646134         5.72810355169958         3.96191280794853    
H        -12.4219463579105       -0.588259565111865E-01     6.89184429224421    
H        -11.1567704141090         3.74308704158296         5.42877900654302    
H        -8.83379285254578         3.24593857911831         6.11862747241910    
H        -10.0831594171947       -0.586632224626217         7.53833861349982    
H        -14.7696709933601         5.46622844362465         4.99937572731591    
C        -18.7614132736869         3.06162737643382         7.01480307914942    
C        -17.5798445275663         3.67730095922668         7.39468867779866    
C        -18.7278359974229         1.73332532116705         6.62386780490334    
C        -17.5023220693827         1.06857552870038         6.61554827181539    
N        -16.3646335046708         1.67730326482876         6.94653742228736    
C        -16.4076410150577         2.93516693001065         7.33688223561457    
C        -17.3652257882465       -0.343990322522624         6.23255157718638    
C        -18.4328779236007        -1.24823537110950         6.23405581850827    
C        -18.1962363533870        -2.56517977828067         5.87210807465743    
C        -15.9101730239479        -1.98046198919206         5.55047222561863    
N        -16.1433091658920       -0.722780051708808         5.90273627934123    
N        -14.6268466817412        -2.35468213059243         5.24540201074317    
N        -13.8316036274169        -1.44350556871246         4.88086939883305    
C        -12.5272366226277        -1.82527450621270         4.67593882745745    
C        -11.6926606830322       -0.942598752715968         3.97983579666359    
C        -11.9912465326132        -3.02902155316416         5.16369774983260    
C        -10.6620199244292        -3.32323237830051         4.97581831813481    
C        -10.3687080052036        -1.25704159163930         3.77759638370966    
C        -9.82473125295330        -2.44636738652709         4.27774363689472    
C        -16.9154866692495        -2.95372519423360         5.52578116416102    
H        -19.6954157985110         3.60248754774700         7.03147140128846    
H        -17.5668384040863         4.70262386594613         7.72679651738831    
H        -19.6342465636712         1.23401429681896         6.32164660715699    
H        -15.4585426210347         3.36909357927261         7.62190021594175    
H        -19.4196618687210       -0.940752878911397         6.53806276316556    
H        -19.0042919237993        -3.28079737866585         5.87080938236148    
H        -12.1207207660731       -0.264320055023631E-01     3.59854422723217    
H        -12.6412809635743        -3.70429403044986         5.69901465267640    
H        -10.2612631724439        -4.25416131455646         5.34909487406937    
H        -9.72926129384805       -0.566680479580796         3.24802798079704    
H        -16.6819521359933        -3.96260122185495         5.22854855202252    
Li       -14.8260823976829        0.560937403095132         5.13430297136885    
C        -2.83013674372583        0.383143206595976         7.76355457490642    
N        -3.99231949255511       -0.289791684007035         8.04531629051317    
C        -1.76103726132264       -0.425485166670669         8.12624077317345    
C        -2.30919744873970        -1.63329809078480         8.64321276894718    
C        -3.68903417455736        -1.51886853199441         8.57652089064644    
C        -2.67925980541402         4.06641826023843         5.62256911823820    
C        -3.55509370249209         3.04914912508130         5.24606520826573    
C        -1.87756416655612         3.86934151435591         6.74793337607579    
C        -1.94884024384613         2.69460529417275         7.46929224307783    
C        -3.61259978792936         1.86803252542876         5.95156306749746    
C        -2.80946394707288         1.66792544912223         7.07555518889037    
C       -0.507171512022128        -3.28373669464675         8.30830348847031    
C        -1.55827615878672        -2.80480776948230         9.08923447542565    
C        0.218285114004590        -4.38636277335173         8.70066471515585    
C       -0.961806356225362E-01    -5.06804771156617         9.87546848112757    
C        -1.87161939486938        -3.48124530328010         10.2679475712544    
C        -1.16020693532533        -4.60236877341662         10.6481863507282    
C        -4.68491415004739        -2.51886815104495         8.93930172585152    
C        -4.46255318028848        -3.84727521047352         8.57147354125001    
C        -5.85011503219938        -2.21138127188410         9.64359164958155    
C        -6.76082207042276        -3.19966299152029         9.96338603890280    
C        -5.35739804417147        -4.83446212011969         8.91593744758663    
C        -6.52410874149105        -4.52940616404267         9.61619668186056    
C        -6.13536238969333       -0.699274217860916         7.02599717515273    
C        -7.43033036077526       -0.318900725017094         6.75237087170597    
C        -5.29566720132538        0.145922495577274         7.74600605147866    
C        -5.75857550563134         1.39484108534984         8.14828081555712    
C        -7.90974862915037        0.924826355492683         7.15965408124257    
C        -7.05017345890808         1.78312899582440         7.84307542060657    
C         1.41383425209484        0.639782215393285         6.46227726719677    
C        0.762450234782831E-01    0.444593569611365         6.72250066457700    
C         2.38849111950702        0.224041381432809         7.36886392850205    
C         1.97135739707293       -0.350742789269407         8.56979066297369    
C       -0.343522914882906       -0.149293651999879         7.91315045640637    
C        0.628620714045756       -0.520427015691937         8.84357626504064    
H        -4.16000493948678         3.17372565560090         4.36115608393802    
H        -1.21284661278399         4.65499678138137         7.07377306570767    
H        -1.33109682563411         2.56036901587383         8.34425091123066    
H        -4.26335002416434         1.07872141424393         5.60900173598287    
H       -0.268105105265552        -2.78737016196772         7.38119385746093    
H         1.01745329427005        -4.75372215573334         8.07546585252435    
H        -2.67492967457127        -3.11797654132532         10.8913689830069    
H        -1.40700488897486        -5.10241532829661         11.5728026861874    
H        -3.58164592231043        -4.09802453248867         8.00208978048579    
H        -6.03580524834740        -1.19548075305567         9.95952752477538    
H        -7.64730685241759        -2.94456173090684         10.5245849989724    
H        -5.17470269994873        -5.85292645411530         8.60972306012624    
H        -5.76705525792897        -1.65244105109574         6.68021791288115    
H        -8.07212381819182       -0.977602518595543         6.18819300841569    
H        -5.10936199983318         2.05368740858852         8.70457334180424    
H        -7.40773035157030         2.74680831234734         8.17215317966794    
H         1.72295413071866         1.07601267591544         5.52482078389067    
H       -0.658327910613945        0.737952964483545         5.99000941900180    
H         2.70572154570276       -0.642193846981974         9.30570307534468    
H        0.325606070014772       -0.947577500051291         9.78744409433746    
C        -4.69341068605640         11.3406308435945        -3.81968408407408    
C        -5.25647622475896         10.0748342645644        -3.83747733079140    
C        -3.69239352067195         11.6145077995936        -2.90247211240534    
C        -3.29791576432699         10.6086976624216        -2.02130363770689    
N        -3.86794369898576         9.40454692986527        -2.02089457714866    
C        -4.80461796945110         9.14481840397533        -2.91074600799056    
C        -2.24163416083339         10.7989980043716        -1.01668674889365    
C        -1.28118538492387         11.8141963443228        -1.08633292069390    
C       -0.323444145412144         11.8988618420170       -0.878603578093562E-01
C        -1.33725688205148         10.0033775166169        0.936081448084019    
N        -2.24346217432336         9.92250452813128       -0.291080762089045E-01
N        -1.35932017953583         9.06612195199754         1.93879078878146    
N        -2.45349306551124         8.46128303057228         2.12001038944892    
C        -2.45436638758794         7.45549554668333         3.05385030059168    
C        -3.69737025625100         6.93017317769638         3.42699378097110    
C        -1.28561487776814         6.90680089360710         3.60826692924965    
C        -1.36475330877733         5.83817741798249         4.46926739299485    
C        -3.76520581623478         5.85496061030854         4.28130427723601    
C        -2.60185306790758         5.27645554620753         4.80031087789321    
C       -0.338074597108489         10.9825063706223        0.947824466455735    
H        -5.02060235297201         12.0997338344743        -4.51386798904471    
H        -6.02268269632073         9.81508758282320        -4.54968116586913    
H        -3.24077891526722         12.5927977462260        -2.86856547302175    
H        -5.21027590384293         8.14234553292663        -2.88381534436332    
H        -1.26221835401815         12.5048937184054        -1.91296503559993    
H        0.430516926846749         12.6704185175211       -0.124227506820817    
H        -4.58761194322826         7.39787732229330         3.03220261143878    
H       -0.332266930459120         7.32533950872549         3.32388163547784    
H       -0.461905310734806         5.40339068675959         4.87241613671956    
H        -4.72646352012836         5.45683327204541         4.56954058187854    
H        0.376447989371724         11.0154455803748         1.75345592061572    
C        -3.76731619497597         13.9577801315108        0.804699462426043    
C        -3.05203504541207         13.3996059537839         1.85177062104334    
C        -4.71937733492403         13.1865386275486        0.158850687466571    
C        -4.91263835234142         11.8712806525570        0.578948793477407    
N        -4.19669311528485         11.3300204668186         1.56314023877691    
C        -3.30770797132677         12.0765197072697         2.18671781514266    
C        -5.90360153625308         10.9764976419005       -0.357471416373968E-01
C        -6.99303264263233         11.4323354292496       -0.786250126131204    
C        -7.87782413746089         10.5050550437772        -1.31393779526911    
C        -6.54898362404951         8.79437560405165       -0.324062975420038    
N        -5.71117062480461         9.68838411599103        0.184099346507980    
N        -6.34068585350068         7.46483685300051       -0.595601851181989E-01
N        -5.17122428464329         7.11707661085684        0.267725909395275    
C        -5.01149527584373         5.79485457312712        0.611707442049828    
C        -3.70815981642183         5.28760239059110        0.670592357876573    
C        -6.08656793682156         4.94884546886941        0.930738679716159    
C        -5.85778113065673         3.64615796211197         1.30410258106016    
C        -3.49107568150461         3.97562204716341         1.02551301826177    
C        -4.55802251651017         3.13111959925251         1.35341839123624    
C        -7.66636685866494         9.15808434536993        -1.08411682391635    
H        -3.59456075745410         14.9792023188584        0.501307936562007    
H        -2.31802691595971         13.9730939365599         2.39408976782804    
H        -5.28648855247780         13.5984448956502       -0.660283375634784    
H        -2.77733022990858         11.5940112784196         2.99668057882653    
H        -7.16411500064402         12.4860250855081       -0.931988301353364    
H        -8.72817565705304         10.8344724383298        -1.89139525358607    
H        -2.89049113756226         5.94507515841187        0.412146450695348    
H        -7.08858020576775         5.34749020814175        0.885709645555337    
H        -6.69283945947638         3.00141998223757         1.53552180433937    
H        -2.48236758754865         3.59355329796291         1.07492312543403    
H        -8.31899869748725         8.39849924955204        -1.48142148026835    
Li       -3.89733555937709         8.96350124834960        0.536637196421222    
C         12.7315270230743         3.61546943540405         5.47592491512841    
C         12.0525657223300         2.95825597438482         6.48921210116167    
C         12.0185522124120         4.07213732318607         4.37982509937703    
C         10.6447843604554         3.83967573944177         4.33103104187935    
N         10.0042287129130         3.17671930131160         5.29235113388913    
C         10.6853831680411         2.76519323759291         6.34263307019859    
C         9.80061005352532         4.28758888944814         3.21438898098969    
C         10.1713219345734         5.30105371593396         2.32324808536400    
C         9.29641598274624         5.65233163463706         1.30746435801395    
C         7.79868622185973         3.99530901633660         2.13343169062755    
N         8.63668732204208         3.67299609368736         3.10933696266382    
N         6.59017197408445         3.34833287405776         2.05575640356166    
N         6.50290347440013         2.22853294632175         2.63259071026203    
C         5.26393665772180         1.63061430520970         2.60897716079298    
C         5.19140146584860        0.274324957614762         2.94591310525303    
C         4.08137147736460         2.31863324159037         2.29248244340275    
C         2.87030742383811         1.66813797401109         2.32391021864536    
C         3.97632102732948       -0.372250034501744         2.95682087263418    
C         2.79409213177913        0.310946889187447         2.65136220231467    
C         8.08305549283909         4.99724266106906         1.19920369537165    
H         13.7965122581704         3.77896574846617         5.54125574560651    
H         12.5672240565374         2.60687731338977         7.36867360034601    
H         12.5254417131383         4.58423319088824         3.57790357597947    
H         10.1086634265467         2.26038010536935         7.10585447497567    
H         11.1069608072738         5.82337167332807         2.43538498683506    
H         9.55879938574691         6.43549543500718        0.612566184538198    
H         6.11011392112406       -0.246039757144783         3.17506795545484    
H         4.14502462554960         3.36522273950302         2.03644460021446    
H         1.96830982716476         2.20402088032460         2.06711126204413    
H         3.92687781461797        -1.41645506068208         3.22659274236483    
H         7.37527115213964         5.22529536108816        0.419589442762677    
C         11.9669074374360         2.51828024088609        0.382474644881568    
C         10.7097599553562         2.58744233462241       -0.196047313451353    
C         12.1070972337007         1.87945235855554         1.60326718243102    
C         10.9737203818253         1.34204514583189         2.21199384987270    
N         9.76246194117756         1.44303754317096         1.66683021924239    
C         9.64079689203014         2.03211955711307        0.494223849341930    
C         11.0204394093125        0.642223839230819         3.50397624880822    
C         12.1887588155393        0.967908194141751E-01     4.04662926827722    
C         12.1189508759165       -0.549124490398157         5.27125070105870    
C         9.78873370867188       -0.612405523738762E-01     5.30786381747282    
N         9.86172727107433        0.543876282055906         4.12980148170127    
N         8.56528682345604       -0.152220870084687         5.92487057536952    
N         7.69605178673445        0.693584229413283         5.56928213512462    
C         6.44359787071753        0.562069581280284         6.11149545859704    
C         5.54560207875587         1.61632606894450         5.90299103461823    
C         6.01225229437202       -0.573271494587514         6.81879559472872    
C         4.71283212787791       -0.661543564833972         7.25772274459891    
C         4.24679092839297         1.51548540009396         6.34102033591636    
C         3.79966259019775        0.367990555759900         7.00618663633542    
C         10.9035461735994       -0.639129405917132         5.92467167822489    
H         12.8259518908805         2.94554972477916       -0.112176441797159    
H         10.5621734863555         3.05646005371903        -1.15523520706201    
H         13.0749098815487         1.81453319370971         2.07371932382216    
H         8.63967342999204         2.05721419139562        0.850444758616262E-01
H         13.1246869024526        0.148633492997680         3.51551249275688    
H         13.0065961775607       -0.982692575415638         5.70625429279103    
H         5.90845812256045         2.50263975254142         5.40267085549807    
H         6.71405289441732        -1.37638080408786         6.98493462876544    
H         4.37886302625337        -1.54732598770307         7.77811911437993    
H         3.56268210462939         2.33621293698308         6.18695894607801    
H         10.8019915096377        -1.11803620128267         6.88437827280375    
Li        8.38336250410319         1.84386486572403         3.83176766721132    
C         7.12523267210872        -12.3126861952264         14.1121306512172    
C         5.93382417316656        -11.7036414050722         14.4715088804858    
C         7.74897696713894        -11.9217516773840         12.9389371461917    
C         7.14619178694705        -10.9382084083343         12.1559925179042    
N         5.98287693959039        -10.3819420381305         12.4898179462598    
C         5.40634723299845        -10.7436380277681         13.6181516452834    
C         7.73245829454189        -10.4504000337030         10.8994337876891    
C         9.08384145143300        -10.6001643196963         10.5690860806430    
C         9.53793171207374        -10.0936001589470         9.36145136867455    
C         7.31674206076933        -9.35180106046893         8.92917135686813    
N         6.89185012820009        -9.83142081897105         10.0904928924671    
N         6.42479188355685        -8.69460345415243         8.11948363042817    
N         5.19979082593122        -8.94551018070195         8.29907308428168    
C         4.31143168538778        -8.21445937568447         7.54830215696608    
C         2.98418620542430        -8.65756137894973         7.50363580503153    
C         4.66008727226884        -7.03644159951745         6.86675079727941    
C         3.70463366280964        -6.32035355573183         6.18599769785115    
C         2.03864051991358        -7.94182512450133         6.80687312520361    
C         2.37586611593274        -6.75620283923369         6.14280351894169    
C         8.65010282156724        -9.45272605413484         8.51702899976697    
H         7.56722554439124        -13.0725872808288         14.7385572114942    
H         5.42834430130828        -11.9640686441441         15.3871862995744    
H         8.67551856672326        -12.3830924383942         12.6373754325070    
H         4.47960549101944        -10.2375807509173         13.8530242381710    
H         9.77189348825052        -11.0747671004826         11.2488637765947    
H         10.5775140530947        -10.1930041649942         9.08850957070791    
H         2.73387048141084        -9.57479948138057         8.01697166568543    
H         5.68594545820665        -6.70274762600345         6.90344616360908    
H         3.98604272082019        -5.42115494586097         5.65785629675163    
H         1.01398330455334        -8.28130780318001         6.79263237036047    
H         8.95182127471374        -9.05279558314083         7.56322199606313    
C         8.12304788126722        -13.9616890342202         9.07942068300876    
C         7.98373114119935        -13.1175514587098         7.98963261514601    
C         7.13897888656813        -13.9636366578769         10.0539813552759    
C         6.05033127093669        -13.1049035513842         9.90818440986115    
N         5.94038897693136        -12.2707474526887         8.87543657842547    
C         6.86977876836035        -12.2901184477287         7.94141021032361    
C         4.95240109919756        -13.0383834197006         10.8834610728496    
C         4.67440125043066        -14.0544609192307         11.8041072062423    
C         3.60819392458089        -13.8945311311561         12.6754034123419    
C         3.19988668643793        -11.7787300898616         11.6617371051700    
N         4.21584120290824        -11.9437632918544         10.8250643504687    
N         2.44144159443436        -10.6394867248492         11.5616656478389    
N         2.98246552685896        -9.64623207171196         10.9978822083517    
C         2.19147729627362        -8.53940293122084         10.8140319971386    
C         2.82266723143245        -7.36533842403780         10.3851981913854    
C        0.797687897909478        -8.53850080979414         10.9950376308571    
C        0.648557283757038E-01    -7.40836764669783         10.7208064093296    
C         2.07881117760564        -6.24440339000329         10.1010247282329    
C        0.687350415693933        -6.24869118793365         10.2483719241424    
C         2.84687780256216        -12.7419967598159         12.6132566969042    
H         8.97818753083362        -14.6147895768959         9.16552132342123    
H         8.71632528522737        -13.1016618252334         7.19915311739451    
H         7.22666913644638        -14.6103824651060         10.9120201595043    
H         6.71328161417902        -11.6137428358711         7.11180659625325    
H         5.25631952645267        -14.9609583007775         11.8231308055679    
H         3.37193130088739        -14.6679559193889         13.3903171225121    
H         3.89958202827726        -7.36802022109853         10.2984373499136    
H        0.319847791839264        -9.44538927490130         11.3329705296126    
H        -1.00835683995381        -7.41898343617188         10.8434877536775    
H         2.57107476079089        -5.33971329882710         9.77729801152465    
H         2.01652337165806        -12.5661525210793         13.2767848501614    
Li        4.94055877854755        -10.2264409624137         10.1227818212687    
C        -12.3728938119954        -12.5622206581095         14.5284528074819    
C        -12.3521085138444        -11.1786260186620         14.4590898418624    
C        -11.3566900483631        -13.2778226929020         13.9174053414306    
C        -10.3566999943149        -12.5781324835805         13.2433441545999    
N        -10.3625426807750        -11.2493963620150         13.1500906945166    
C        -11.3210699942875        -10.5745925851080         13.7519660228916    
C        -9.23121839930334        -13.2455518801171         12.5734234122868    
C        -8.82500871426752        -14.5519729941631         12.8662138756838    
C        -7.74196963680442        -15.0850430977776         12.1848121102286    
C        -7.56678692776129        -13.0202883084659         11.0112234576403    
N        -8.59939763949012        -12.5145367566951         11.6729098034756    
N        -6.91384802505207        -12.2285822766433         10.1009792283974    
N        -7.55875291614617        -11.2502480113700         9.62848054414243    
C        -6.86475006724477        -10.4081344027808         8.79496138320635    
C        -7.60503462374103        -9.48889531724790         8.04167595903169    
C        -5.46295021742459        -10.3969710348993         8.69824432924708    
C        -4.83065301630786        -9.47775919897932         7.89600701593510    
C        -6.96303074248804        -8.58245149227267         7.23092353032815    
C        -5.56542801004165        -8.54988245213765         7.14955156818427    
C        -7.08942266592724        -14.3157509093778         11.2393226459768    
H        -13.1611398005625        -13.0762698182953         15.0572673166338    
H        -13.1121829672485        -10.5845904401807         14.9399546434709    
H        -11.3528591895678        -14.3551781336718         13.9561455961090    
H        -11.2584588183404        -9.49788092832984         13.6681672590258    
H        -9.32205364280791        -15.1302050323118         13.6273520728002    
H        -7.40785995220729        -16.0889463781376         12.3983944741188    
H        -8.68298131516079        -9.52299184250730         8.10965062359291    
H        -4.89947613420295        -11.1123266729038         9.27773963697120    
H        -3.75315994781521        -9.48377913891021         7.82253768743288    
H        -7.54091128404514        -7.86484219725767         6.66819096632178    
H        -6.24999214340901        -14.6881595530576         10.6759893672704    
C        -11.2952760222280        -15.6811509669113         10.2168259862385    
C        -10.1525375095382        -15.5134042540814         9.45166740310324    
C        -12.0075568469933        -14.5601759585451         10.6097916440391    
C        -11.5394745323229        -13.3027299425832         10.2311595035313    
N        -10.4208028601318        -13.1470986718442         9.52485324517553    
C        -9.76013247260840        -14.2191859913170         9.13679211390165    
C        -12.2272603966536        -12.0547736484070         10.5921761465584    
C        -13.5695673595200        -11.9975410652783         10.9829818676910    
C        -14.1241066291149        -10.7658455072344         11.2937601799488    
C        -12.0102547792743        -9.78141215661430         10.8107794206906    
N        -11.4898750353157        -10.9626498024620         10.5059974899010    
N        -11.2241575396406        -8.66278163786472         10.6910177052590    
N        -9.97371680948204        -8.84308262275871         10.7135207717104    
C        -9.19118398874900        -7.73461185566158         10.4992173280975    
C        -7.81560625724567        -7.86959174993377         10.7222972387935    
C        -9.69094245654929        -6.50485549829040         10.0378121608781    
C        -8.83327918157668        -5.46130347486492         9.78103326054322    
C        -6.96450245957508        -6.82508289551870         10.4467322678779    
C        -7.45459512799314        -5.60872450649106         9.95960239448820    
C        -13.3430280671171        -9.62802769332372         11.2082593748401    
H        -11.6324992876457        -16.6679002239467         10.4957584211194    
H        -9.58215310979045        -16.3608744472068         9.10782439364402    
H        -12.8984335909514        -14.6657890074650         11.2076267623138    
H        -8.87628332321727        -14.0339818926296         8.54130606361354    
H        -14.1761990059555        -12.8872312144268         11.0172890042368    
H        -15.1590761024449        -10.6974220358715         11.5925809710775    
H        -7.45318940268648        -8.80506577988138         11.1229216060399    
H        -10.7534001679117        -6.40709340722902         9.87472920988720    
H        -9.22116406776619        -4.52323260337049         9.41099627084690    
H        -5.90506482660513        -6.93214148068972         10.6245543755841    
H        -13.7247394788469        -8.65030136333170         11.4512841160375    
Li       -9.50785422880394        -11.0351564879856         10.6923127308378    
