425
XYZ file generated by Avogadro.
C     -3.53683   -2.14390    3.21902
C     -4.36001   -3.13181    3.74092
N     -2.22955   -2.53096    3.40196
C     -2.20390   -3.75143    4.03664
C     -3.51385   -4.15276    4.25824
C     -4.43752    1.70121    1.61492
C     -3.48408    0.88330    1.00656
C     -5.17779    1.17251    2.67517
C     -4.90353   -0.08236    3.17516
C     -3.23069   -0.38531    1.48316
C     -3.89798   -0.87063    2.61044
C      0.05864   -3.77175    5.09907
C     -0.99708   -4.43996    4.47507
C      1.12663   -4.47258    5.62176
C      1.16400   -5.86700    5.57734
C     -0.91560   -5.83010    4.35207
C      0.13359   -6.52955    4.90636
C     -3.97236   -5.35090    4.95628
C     -3.36685   -5.77193    6.14026
C     -5.07478   -6.06702    4.48695
C     -5.61072   -7.10118    5.22443
C     -3.88083   -6.83210    6.85736
C     -5.04319   -7.48361    6.44128
C     -6.56033   -2.58443    2.72412
C     -7.92046   -2.38985    2.83578
C     -5.81784   -3.07675    3.79873
C     -6.50201   -3.46411    4.95132
C     -8.59741   -2.71654    4.01229
C     -7.86861   -3.30489    5.04751
C      0.16743    0.26595    3.17809
C     -1.00296   -0.43067    3.40394
C      1.29574   -0.37300    2.66162
C      1.18219   -1.71112    2.28220
C     -1.08571   -1.78308    3.07688
C      0.00303   -2.40288    2.46659
H     -2.95197    1.23961    0.13784
H     -5.94441    1.76945    3.14736
H     -5.45720   -0.45371    4.02494
H     -2.50426   -1.00642    0.98048
H      0.03424   -2.69610    5.20306
H      1.91693   -3.92694    6.11760
H     -1.69574   -6.36004    3.82758
H      0.16986   -7.60295    4.80149
H     -2.49766   -5.24761    6.51070
H     -5.52179   -5.79503    3.54273
H     -6.46973   -7.63396    4.84599
H     -3.39951   -7.12457    7.77938
H     -6.05920   -2.33983    1.79969
H     -8.47214   -1.99919    1.99431
H     -5.95368   -3.87448    5.78644
H     -8.36786   -3.59781    5.95990
H      0.21662    1.30804    3.45819
H     -1.85002    0.07233    3.84721
H      2.02084   -2.20767    1.81950
H     -0.07400   -3.43344    2.15614
C    -19.22837    0.05338    2.55607
C    -18.40412   -1.05070    2.41050
C    -18.66381    1.26744    2.91040
C    -17.28701    1.32962    3.12084
N    -16.50534    0.25649    3.01261
C    -17.04663   -0.89028    2.65427
C    -16.59392    2.57096    3.49455
C    -17.13094    3.84683    3.29215
C    -16.38896    4.95340    3.67492
C    -14.68616    3.45910    4.40856
N    -15.39813    2.40596    4.03020
N    -13.43926    3.25426    4.94386
N    -13.21493    2.11250    5.43691
C    -11.93916    1.87877    5.88674
C    -11.72430    0.71066    6.62840
C    -10.84945    2.72226    5.61062
C     -9.58706    2.38385    6.03609
C    -10.45565    0.37592    7.03992
C     -9.36248    1.19616    6.73957
C    -15.14145    4.77179    4.24282
H    -20.29168   -0.02604    2.38785
H    -18.80133   -2.00827    2.11539
H    -19.28532    2.13990    3.03195
H    -16.36017   -1.72017    2.55315
H    -18.09154    3.97670    2.82188
H    -16.78109    5.94757    3.52326
H    -12.57948    0.09743    6.87308
H    -11.02458    3.62402    5.04390
H     -8.75020    3.02603    5.80321
H    -10.29747   -0.52146    7.61883
H    -14.53296    5.59923    4.56806
C    -18.75286    3.45984    6.69391
C    -17.54901    4.05809    7.02923
C    -18.76629    2.10901    6.38856
C    -17.56364    1.40430    6.41699
N    -16.40466    1.99350    6.70624
C    -16.40307    3.27413    7.01658
C    -17.47511   -0.03172    6.11568
C    -18.56993   -0.90084    6.17261
C    -18.37618   -2.24162    5.87888
C    -16.07680   -1.74552    5.50756
N    -16.26865   -0.46571    5.79863
N    -14.80825   -2.17099    5.20442
N    -13.99421   -1.29484    4.79698
C    -12.70342   -1.71390    4.58639
C    -11.85320   -0.85997    3.87342
C    -12.19363   -2.92634    5.08080
C    -10.87337   -3.25393    4.88633
C    -10.53725   -1.20476    3.67051
C    -10.01791   -2.40086    4.18033
C    -17.11156   -2.68696    5.54115
H    -19.66800    4.03216    6.67915
H    -17.49954    5.10175    7.29407
H    -19.69054    1.62205    6.12229
H    -15.43857    3.69226    7.27174
H    -19.54430   -0.54737    6.46663
H    -19.20542   -2.93127    5.92187
H    -12.26352    0.05996    3.48220
H    -12.85623   -3.58141    5.62571
H    -10.49420   -4.19247    5.26299
H     -9.88434   -0.53315    3.13363
H    -16.91251   -3.71639    5.29344
Li   -14.90162    0.73547    4.99301
C     -2.87857    0.09490    7.78089
C     -4.07247   -0.51764    8.13053
C     -1.84489   -0.69157    8.22971
C     -2.35867   -1.80424    8.84994
N     -3.74279   -1.72474    8.80762
C     -2.41435    3.63905    5.45359
C     -3.36722    2.67231    5.13270
C     -1.60113    3.42349    6.56627
C     -1.74582    2.28913    7.34107
C     -3.49604    1.52930    5.88835
C     -2.69363    1.31832    7.01199
C     -0.48978   -3.38542    8.52410
C     -1.52475   -2.90072    9.32530
C      0.28120   -4.44892    8.93576
C      0.03040   -5.08629   10.14992
C     -1.77095   -3.53037   10.54672
C     -1.01332   -4.61334   10.94590
C     -4.68159   -2.74376    9.26970
C     -4.42929   -4.08679    8.99057
C     -5.85747   -2.41555    9.94440
C     -6.76178   -3.39591   10.30320
C     -5.31930   -5.06598    9.37059
C     -6.50822   -4.73842   10.02146
C     -6.34820   -0.95013    7.28475
C     -7.62184   -0.53860    6.96080
C     -5.41821   -0.05124    7.80560
C     -5.80402    1.27790    7.97933
C     -8.00747    0.79139    7.12299
C     -7.07408    1.69478    7.63228
C      1.23827    0.10292    6.39684
C     -0.08551   -0.15241    6.67639
C      2.20390    0.03979    7.39987
C      1.80315   -0.28521    8.69477
C     -0.48419   -0.44731    7.97720
C      0.47099   -0.51240    8.98750
H     -3.98389    2.80755    4.25756
H     -0.87501    4.17088    6.84903
H     -1.13012    2.16326    8.21937
H     -4.21865    0.77933    5.60742
H     -0.30723   -2.94406    7.55712
H      1.06167   -4.82580    8.29255
H     -2.56371   -3.16360   11.18081
H     -1.21136   -5.08057   11.89869
H     -3.53435   -4.35728    8.45317
H     -6.06041   -1.38368   10.18876
H     -7.66168   -3.12248   10.83353
H     -5.12116   -6.09771    9.12413
H     -6.05950   -1.97638    7.12254
H     -8.32191   -1.24312    6.53936
H     -5.10212    1.98493    8.39598
H     -7.35871    2.72436    7.78994
H      1.53968    0.31788    5.38317
H     -0.81949   -0.13164    5.88693
H      2.53579   -0.32571    9.48620
H      0.16725   -0.73775    9.99828
C     -4.38439   11.43409   -3.66422
C     -5.03702   10.21318   -3.71831
C     -3.32706   11.58883   -2.78300
C     -2.96760   10.51261   -1.97296
N     -3.62191    9.35267   -2.00541
C     -4.61314    9.20620   -2.86130
C     -1.85698   10.57493   -1.01203
C     -0.82895   11.52176   -1.07975
C      0.17717   11.48649   -0.12708
C     -0.92452    9.61604    0.85192
N     -1.87821    9.65059   -0.06911
N     -0.96438    8.63152    1.80731
N     -2.08746    8.09319    2.02110
C     -2.10492    7.04790    2.91233
C     -3.35744    6.57969    3.32714
C     -0.94614    6.41386    3.39196
C     -1.04682    5.33130    4.23344
C     -3.44757    5.48748    4.15809
C     -2.29721    4.83606    4.61607
C      0.14343   10.52001    0.86132
H     -4.68642   12.24985   -4.30334
H     -5.85039   10.04546   -4.40537
H     -2.80575   12.53046   -2.72152
H     -5.08856    8.23455   -2.86474
H     -0.79765   12.25149   -1.87173
H      0.98280   12.20399   -0.16292
H     -4.23717    7.10673    2.98763
H      0.01579    6.78456    3.07219
H     -0.15230    4.83819    4.58575
H     -4.41574    5.13615    4.48150
H      0.89495   10.45984    1.63096
C     -3.02390   13.78589    1.02941
C     -2.30786   13.11242    2.00577
C     -4.06463   13.13109    0.39195
C     -4.34436   11.81250    0.74821
N     -3.62861   11.15932    1.66228
C     -2.65375   11.79583    2.27947
C     -5.43418   11.03690    0.13857
C     -6.51502   11.62044   -0.53175
C     -7.49765   10.79852   -1.06102
C     -6.27305    8.93374   -0.22817
N     -5.34066    9.72742    0.28230
N     -6.16239    7.57940   -0.04058
N     -5.01078    7.12982    0.21836
C     -4.93199    5.78818    0.50331
C     -3.66248    5.19812    0.50303
C     -6.04911    5.00347    0.83488
C     -5.89051    3.68310    1.18121
C     -3.51641    3.87119    0.83485
C     -4.62277    3.09150    1.19242
C     -7.38932    9.42809   -0.91189
H     -2.78350   14.80689    0.77453
H     -1.50539   13.59373    2.54073
H     -4.63463   13.63418   -0.37236
H     -2.12676   11.22604    3.03304
H     -6.60420   12.69093   -0.61437
H     -8.34315   11.22731   -1.57709
H     -2.81504    5.80845    0.22555
H     -7.02499    5.46452    0.82749
H     -6.75680    3.08675    1.42648
H     -2.53206    3.42765    0.84831
H     -8.12083    8.74708   -1.31412
Li    -3.58549    8.81637    0.52401
C     12.28290    4.16911    5.57983
C     11.56919    3.57576    6.60842
C     11.62279    4.48706    4.40437
C     10.26591    4.18565    4.29596
N      9.59454    3.58108    5.27494
C     10.22441    3.30083    6.39798
C      9.47395    4.49726    3.09756
C      9.86135    5.44542    2.14363
C      9.03494    5.67839    1.05584
C      7.54544    4.04526    1.94179
N      8.33869    3.83195    2.98341
N      6.35881    3.36138    1.86149
N      6.26842    2.28479    2.51412
C      5.03859    1.66731    2.49194
C      4.97398    0.33026    2.90004
C      3.85525    2.32576    2.12018
C      2.64896    1.66767    2.17237
C      3.76480   -0.32689    2.92574
C      2.58089    0.32935    2.57075
C      7.84951    4.97535    0.94170
H     13.33329    4.39033    5.69316
H     12.04046    3.33376    7.54706
H     12.15809    4.94728    3.58961
H      9.62284    2.83827    7.16890
H     10.77158    6.00977    2.26074
H      9.31164    6.40892    0.31100
H      5.89345   -0.16738    3.17311
H      3.91376    3.35778    1.80955
H      1.74516    2.18061    1.87809
H      3.72060   -1.35638    3.24836
H      7.17786    5.11313    0.11065
C     11.70954    2.62900    0.35159
C     10.45949    2.55091   -0.24065
C     11.87421    2.13191    1.63390
C     10.77130    1.58270    2.28629
N      9.56376    1.54379    1.72438
C      9.41976    1.99939    0.49619
C     10.84616    1.01971    3.64223
C     12.04367    0.62906    4.25268
C     12.00106    0.09948    5.53266
C      9.63777    0.38634    5.48655
N      9.68608    0.88319    4.25766
N      8.41425    0.24141    6.09232
N      7.46828    0.93844    5.62979
C      6.22454    0.72318    6.17351
C      5.20738    1.61154    5.80606
C      5.92094   -0.34994    7.02803
C      4.62971   -0.54673    7.45986
C      3.91585    1.39442    6.22615
C      3.60260    0.30351    7.04285
C     10.78228   -0.03224    6.17336
H     12.54516    3.06031   -0.17832
H     10.29491    2.90580   -1.24498
H     12.83738    2.18333    2.11529
H      8.42516    1.91471    0.07931
H     12.98386    0.70928    3.73278
H     12.91167   -0.21349    6.02038
H      5.46989    2.46253    5.19492
H      6.71433   -1.02177    7.31766
H      4.39605   -1.38351    8.10179
H      3.13196    2.07858    5.93769
H     10.69882   -0.42635    7.17254
Li     8.11851    2.03069    3.80400
C      7.54303  -12.28170   13.85355
C      6.37718  -11.69200   14.31461
C      8.07453  -11.85864   12.64654
C      7.40746  -10.86339   11.93367
N      6.26808  -10.32570   12.36577
C      5.78005  -10.71813   13.52519
C      7.89494  -10.34159   10.64900
C      9.22036  -10.46849   10.21893
C      9.58136   -9.93022    8.99378
C      7.32739   -9.20379    8.73999
N      6.99166   -9.71463    9.91708
N      6.37638   -8.53702    8.00988
N      5.16681   -8.80236    8.26055
C      4.23242   -8.06263    7.57396
C      2.90847   -8.51726    7.58272
C      4.53811   -6.87110    6.89542
C      3.54920   -6.16265    6.25533
C      1.92900   -7.81025    6.92376
C      2.22718   -6.62030    6.24889
C      8.62879   -9.28017    8.23102
H      8.03628  -13.05136   14.42758
H      5.94346  -11.97761   15.25910
H      8.97930  -12.30471   12.26613
H      4.86946  -10.22642   13.84004
H      9.96012  -10.95023   10.83655
H     10.59940  -10.01191    8.64445
H      2.68727   -9.43975    8.10007
H      5.56013   -6.52392    6.89631
H      3.79908   -5.25479    5.72593
H      0.90902   -8.16345    6.94365
H      8.85701   -8.85516    7.26765
C      8.21651  -13.84097    8.74370
C      7.99581  -12.96835    7.69038
C      7.30299  -13.87803    9.78404
C      6.20123  -13.02486    9.73880
N      6.01408  -12.16325    8.74005
C      6.87590  -12.14933    7.74318
C      5.17346  -12.99475   10.78956
C      4.96957  -14.03526   11.70260
C      3.96542  -13.90730   12.64957
C      3.46858  -11.77269   11.71914
N      4.42450  -11.90748   10.80939
N      2.69801  -10.63674   11.69937
N      3.19328   -9.63207   11.11523
C      2.39032   -8.52524   11.00141
C      2.99260   -7.34566   10.54726
C      1.01009   -8.53167   11.26530
C      0.25653   -7.40591   11.03099
C      2.22812   -6.22942   10.30370
C      0.84580   -6.24620   10.51870
C      3.19157  -12.76131   12.66941
H      9.07970  -14.48906    8.75158
H      8.67104  -12.92469    6.85135
H      7.45446  -14.54778   10.61507
H      6.65722  -11.45195    6.94563
H      5.55944  -14.93576   11.65924
H      3.78641  -14.69995   13.36001
H      4.06323   -7.34351   10.40261
H      0.55680   -9.44161   11.62780
H     -0.80843   -7.42249   11.21047
H      2.69613   -5.32153    9.95378
H      2.40850  -12.60993   13.39364
Li     5.06342  -10.16091   10.08400
C    -12.34971  -12.95297   14.57553
C    -12.37445  -11.56772   14.56520
C    -11.30479  -13.60800   13.94530
C    -10.32335  -12.84739   13.31121
N    -10.37180  -11.51692   13.27563
C    -11.35719  -10.90025   13.89619
C     -9.17368  -13.44830   12.62004
C     -8.72332  -14.75071   12.86109
C     -7.62272  -15.21872   12.16032
C     -7.51909  -13.10446   11.06882
N     -8.56689  -12.66092   11.75040
N     -6.89599  -12.25831   10.18664
N     -7.57421  -11.28593    9.74928
C     -6.91036  -10.40258    8.93246
C     -7.68042   -9.48781    8.20418
C     -5.51068  -10.35715    8.81817
C     -4.91020   -9.41926    8.01294
C     -7.07003   -8.56309    7.38880
C     -5.67538   -8.50569    7.27967
C     -6.99762  -14.39094   11.24615
H    -13.12529  -13.51481   15.07361
H    -13.15860  -11.02019   15.06233
H    -11.26531  -14.68535   13.93777
H    -11.32912   -9.81951   13.85993
H     -9.20076  -15.37542   13.59769
H     -7.25428  -16.21828   12.33425
H     -8.75622   -9.54297    8.28943
H     -4.92319  -11.06536    9.38241
H     -3.83392   -9.40179    7.92343
H     -7.67086   -7.85350    6.84014
H     -6.14681  -14.71243   10.66865
C    -11.26463  -15.84715   10.23742
C    -10.11405  -15.64675    9.49195
C    -11.99584  -14.74501   10.64818
C    -11.53808  -13.47291   10.30755
N    -10.41260  -13.28643    9.61989
C     -9.73420  -14.34061    9.21365
C    -12.24460  -12.24285   10.69335
C    -13.59287  -12.20923   11.06482
C    -14.16272  -10.99205   11.40466
C    -12.05038   -9.97554   10.98721
N    -11.51594  -11.14229   10.65224
N    -11.26720   -8.85003   10.91896
N    -10.01767   -9.03198   10.96756
C     -9.22459   -7.92459   10.80551
C     -7.85853   -8.07307   11.07552
C     -9.70029   -6.68343   10.34903
C     -8.82580   -5.64552   10.13169
C     -6.99129   -7.03137   10.84656
C     -7.45416   -5.80669   10.35241
C    -13.39033   -9.84571   11.36819
H    -11.59316  -16.84455   10.48743
H     -9.52865  -16.47853    9.13519
H    -12.89333  -14.87575   11.23097
H     -8.84569  -14.12994    8.63368
H    -14.19212  -13.10458   11.06216
H    -15.20282  -10.94139   11.68884
H     -7.51771   -9.01802   11.47338
H    -10.75606   -6.57493   10.15242
H     -9.19275   -4.70108    9.75720
H     -5.94030   -7.14888   11.06350
H    -13.78412   -8.87951   11.63666
Li    -9.53314  -11.17936   10.84781
