425
Coordinates from ORCA-job ORCA
  C   -3.53693333351410      6.45906883083400     12.32747936490587
  C   -4.24430627767982      5.22107390227321     12.47219534018579
  C   -3.29511396810227      4.20465898103398     12.57525936882387
  N   -2.03403853810260      4.78926084442340     12.47889949729363
  C   -2.17249958199216      6.16940189949467     12.34419050136589
  C   -4.10813976428233      7.81364822500244     12.34600376654677
  C   -3.63162508189754      8.83914839387434     11.51751722003354
  H   -2.89345825709335      8.60722869576175     10.75668744532751
  C   -4.03520922681994     10.15559516660634     11.70019244280051
  H   -3.58271499889331     10.92911638042692     11.08841113297348
  C   -4.95557701833500     10.50475381418337     12.70134058917139
  C   -5.50715893779660      9.45689860908921     13.45742981252859
  H   -6.24681139620225      9.67601919167481     14.22005383340461
  C   -5.08551289650315      8.14932491597963     13.29549333171988
  H   -5.48696590641132      7.38031856289243     13.94613027786555
  C   -5.69442507937984      5.08886217577994     12.67882206328277
  C   -6.62530234322070      5.80309424650077     11.91160652580300
  H   -6.28011602570769      6.38549350930766     11.06367846610987
  C   -7.97004852683615      5.83591214221640     12.25997527150155
  H   -8.64048596980188      6.46315781713080     11.68193273475888
  C   -8.45379323529558      5.13760806634204     13.37799317686385
  C   -7.53087167551608      4.34669470856388     14.08339335432045
  H   -7.85847519261861      3.76781000369452     14.93983115227676
  C   -6.18850584657309      4.33522411649478     13.75364278206931
  H   -5.50044160269977      3.76405083271470     14.36609042392290
  C   -3.52525840503803      2.81012780036040     12.96017802167495
  C   -4.53921511033272      2.04884636781471     12.36067379334105
  H   -5.06284629766009      2.44801030469587     11.49833225315406
  C   -4.92952203794661      0.82758499461525     12.89461060401291
  H   -5.76364769514911      0.30628657579973     12.43728944563886
  C   -4.31421149889550      0.29865785663699     14.04174064202699
  C   -3.24137003153877      1.02811769366337     14.58234458975773
  H   -2.72122795797143      0.66384855807663     15.46061155801323
  C   -2.86223183365908      2.25142679660177     14.06411883351711
  H   -2.07125566510955      2.80338617969121     14.55776422031405
  C   -0.82338488805551      4.10207561467224     12.78905432865920
  C   -0.48997435713959      2.90845565582018     12.15219776379842
  H   -1.10336866451840      2.54163286894161     11.33633484570193
  C   0.58110312811669      2.15103364704035     12.61461447476524
  H   0.76778514521968      1.19050369646935     12.14773324021749
  C   1.36985186987507      2.57345932722790     13.69765486177438
  C   1.06710308393082      3.82808715330379     14.25541795905776
  H   1.65203494242387      4.22122144329158     15.07884738888533
  C   -0.01687047644318      4.57096233370086     13.82578125059405
  H   -0.25898652766471      5.50258787495028     14.32290902802423
  C   -1.02344668885907      7.07641961271379     12.39008249541553
  C   0.17328878949366      6.82840127579490     11.70218245392453
  H   0.23613322195766      5.98913681314839     11.01721841261309
  C   1.30110891259883      7.60720544628142     11.92725840866899
  H   2.22634102068581      7.33724189714366     11.42901335591489
  C   1.28137532011014      8.68105344960896     12.83193389141688
  C   0.05151729949639      8.98106543181233     13.44294560701316
  H   -0.02380751639682      9.82133837928355     14.12484115074141
  C   -1.06624608168235      8.19333469928049     13.23991871102791
  H   -1.97728236628608      8.41587191883647     13.78380919343273
  C   -1.75839160765157      6.14589528679700     18.27658091773088
  C   -2.32452837096939      4.89655667105222     18.49813133124423
  N   -3.70449487810446      5.05756811000937     18.55452377350966
  C   -4.01801540044614      6.39431194074670     18.32728550931672
  C   -2.82864037492945      7.09082516387026     18.17224858200209
  C   -0.35908396416113      6.37409563726900     17.88876793228271
  C   -0.11389852198471      6.97046810688502     16.64368316051786
  H   -0.94762674101655      7.33989788927203     16.05439191602763
  C   1.16750174667472      7.05360673021231     16.13487236337129
  H   1.32101164261662      7.49006722225455     15.15526677358900
  C   2.27233606576222      6.59145858894558     16.86339997486387
  C   2.03842648207745      6.04309594983680     18.13124136447142
  H   2.87319414868615      5.67361699566244     18.71991740272441
  C   0.74187345952876      5.92035571736538     18.62640566196031
  H   0.57609522161578      5.45402724174023     19.59252721407254
  C   -1.69323624277171      3.58055993156596     18.32989134791469
  C   -1.76757906216725      2.51675083353537     19.23680168616604
  H   -2.29000757395442      2.65052203758798     20.17887811542532
  C   -1.17223303668842      1.28971279361182     18.94562371048510
  H   -1.23827432234580      0.48006016016954     19.66631230495238
  C   -0.52421171783493      1.07689246993911     17.72111540162256
  C   -0.47422534344210      2.14177472061283     16.81180641685160
  H   0.01877199209729      2.00531193063753     15.85740152700163
  C   -1.02148820264290      3.36951671911034     17.11919041504324
  H   -0.95655540016202      4.18341875831230     16.40536460720745
  C   -4.63290281321999      3.99057097972909     18.34364128137013
  C   -4.56100782707025      3.29662107021481     17.13771813977421
  H   -3.78647944963072      3.54406915128586     16.41949128219070
  C   -5.48343138214479      2.30967852078659     16.85335795618518
  H   -5.40889957368008      1.77230447029633     15.91550229112639
  C   -6.49459548227078      1.97452985812520     17.76585442674725
  C   -6.54264889303764      2.66719509655469     18.98251381343836
  H   -7.32290355567546      2.44004438938409     19.70214134573119
  C   -5.62258812781634      3.67503184807193     19.26899518878592
  H   -5.68026286655141      4.22509519067442     20.20240191510074
  C   -5.37296274515586      6.85965031641436     17.99144983986296
  C   -6.03374851508875      7.86798417637146     18.70062503988573
  H   -5.58726912670939      8.25746589220943     19.60994338931843
  C   -7.24018753346728      8.39245904480787     18.24039093139896
  H   -7.72475229369786      9.18703699850237     18.79978037029914
  C   -7.80206193595349      7.94642366166739     17.03795597706473
  C   -7.13633595958715      6.93175516287717     16.33615986771814
  H   -7.55354690161818      6.56259839284968     15.40675284127763
  C   -5.95922330805566      6.38734692806690     16.80938919270803
  H   -5.46310063647252      5.61560678044544     16.23060916477145
  C   -2.69962621723353      8.47252613651049     17.67911301290314
  C   -1.90020963459864      9.44491118590427     18.29152545062047
  H   -1.41131705798466      9.21430497333854     19.23299010045493
  C   -1.70875559139642     10.69235992341517     17.70108608049718
  H   -1.07373928765216     11.42437438071413     18.19144540613988
  C   -2.28057305317309     10.99076468337156     16.45744634425075
  C   -3.08403482886732     10.01449073357932     15.85312409053438
  H   -3.54848616437647     10.22407691863856     14.89723889187358
  C   -3.30540631195263      8.79228315079820     16.45739217804906
  H   -3.92754963354832      8.05513997787213     15.95981968161678
  C   -4.83539807436455     -0.89147651277677     14.73847370849505
  C   -5.64360266064628     -1.85110451178915     14.10345295014372
  H   -5.81168007285079     -1.79562289198237     13.03351426328722
  C   -6.24624013693111     -2.86956093565678     14.82509443825157
  H   -6.89637160476795     -3.59003756097235     14.33727956663094
  C   -6.01672004428381     -2.98850942476118     16.20128013437513
  C   -5.17475701626124     -2.06805882069154     16.84128334031070
  H   -5.02500371806438     -2.14189919007788     17.91164653472080
  C   -4.60971680150238     -1.03815812776954     16.12233186046080
  H   -4.02942115703446     -0.29666018307755     16.65963955820894
  N   -6.73098232276076     -3.97455813780838     16.90468435972468
  N   -6.24891700054350     -4.25385536194317     18.03638238130904
  N   -8.36134761257160     -5.19629994775437     18.55320200195763
  C   -7.05807234667921     -5.10484110070799     18.82079490141972
  C   -6.45076306364252     -5.76916794831376     19.88748614691762
  H   -5.39102827244549     -5.63964255958799     20.07211761322694
  C   -7.24852779545383     -6.59467881222372     20.66867273706075
  H   -6.81933718767676     -7.14966171137122     21.49594486874800
  C   -8.60555118991085     -6.70171873872026     20.38909804062367
  H   -9.23092856082679     -7.34410612556271     20.99567225609734
  C   -9.13940264781780     -5.96943152422499     19.31991816500670
  N   -10.87630774408185     -5.39759049231774     17.77457791552771
  C   -10.57596808141143     -5.99267935274508     18.94481044292137
  C   -11.55494875787671     -6.57931169873583     19.74864851604854
  H   -11.30257763665136     -7.03778694674221     20.69686406692379
  C   -12.87757308913073     -6.55677204522401     19.32558022416802
  H   -13.65410380524868     -7.00615320331287     19.93514176171697
  C   -13.18669766408435     -5.94633028424235     18.11754079556777
  H   -14.20597406104197     -5.90464593000369     17.75110898206569
  C   -12.14996224426944     -5.38035118641473     17.38204134975703
  H   -12.35495418042818     -4.88977786971925     16.43180093494863
  C   -7.43655320997830      0.90417590533509     17.38985515557557
  C   -8.96746847330785     -1.27209254737287     16.50700666906306
  C   -7.85920427171883     -0.08222466163498     18.29280263277603
  H   -7.54533222312734     -0.03091543581633     19.33060133082484
  C   -8.59379229544285     -1.17434829369489     17.85247546686373
  H   -8.86813775867678     -1.97503385634042     18.53288145275867
  C   -8.60959609338034     -0.25687922906572     15.60917489900625
  H   -8.89554335504397     -0.34342162572050     14.56773233935300
  C   -7.84597573640107      0.80163060074785     16.04797308169758
  H   -7.53769867561753      1.55928050260031     15.33520718739592
  N   -9.58140834277316     -2.46347308652577     16.07981076054471
  N   -10.19277575935971     -2.37175403538046     14.98186010619317
  N   -10.00427195178256     -4.72485962995134     14.85135053561766
  C   -10.62321725826165     -3.61195614239585     14.45822402920769
  C   -11.63932474272966     -3.60109679493642     13.50222394614094
  H   -12.09176176232192     -2.66348288806038     13.20195036525944
  C   -12.04219701597864     -4.82438772058555     12.98180476158606
  H   -12.84284580868515     -4.87229664549179     12.25157607375870
  C   -11.41021713397254     -5.99036144388038     13.39798063534729
  H   -11.72378623769258     -6.94518863135571     12.99549393540673
  C   -10.37337066448880     -5.90321612788059     14.33688947432067
  N   -8.81569804093506     -6.83083980528802     15.89951783892609
  C   -9.62093649237878     -7.07678071329769     14.84797579183502
  C   -9.72989594312433     -8.34741404226656     14.28092452453097
  H   -10.36711547503315     -8.52626753090512     13.42359194770098
  C   -8.99327154267844     -9.39290744982168     14.82268366296909
  H   -9.06281109975507    -10.38835785171903     14.39754970749337
  C   -8.16648319915660     -9.14060404260624     15.90910963592003
  H   -7.57380584194447     -9.92740696130780     16.36148251968400
  C   -8.11196625887630     -7.84249625935936     16.40745086356727
  H   -7.47195515881489     -7.60529624432835     17.25589811107761
  Li  -9.05936408869061     -4.77283032091166     16.67322845053710
  C   2.38310350119758      1.69905175212035     14.32542529430990
  C   2.92504080980721      0.57521569583459     13.67722852372727
  H   2.69955375475263      0.38794118332766     12.63327746566151
  C   3.74139781513553     -0.31956249356333     14.35315822800115
  H   4.13298002754716     -1.20183799937511     13.85534513982980
  C   4.08073225897108     -0.09031634201368     15.69145701456751
  C   3.58840978063598      1.05065670864799     16.33900118766407
  H   3.82853091317837      1.21488202209568     17.38239234619415
  C   2.75439993262238      1.91741327994413     15.66766585287640
  H   2.34102072414838      2.75293710136093     16.21996030926010
  N   4.84152077755670     -1.06950698091238     16.36032103520744
  N   5.39438645496234     -0.65210180720082     17.41317248337527
  N   5.67037130411600     -2.92706585078014     18.03316535147670
  C   6.02385827240032     -1.65059895000280     18.18820939229889
  C   6.95911965617188     -1.22715424791781     19.13386770801625
  H   7.18944823062686     -0.17287306996451     19.23036879536609
  C   7.57263200981222     -2.19932548005123     19.91256624950679
  H   8.32195262089678     -1.92305114354793     20.64655519221314
  C   7.21444756503412     -3.53200917138093     19.75137834632038
  H   7.68984841757918     -4.29342097194202     20.35637468212252
  C   6.23849208208530     -3.86465517036192     18.80189275361848
  N   4.98706209787613     -5.41836826986114     17.47896010736250
  C   5.76874917917555     -5.25274670436545     18.56271632450838
  C   6.10090764432775     -6.31619097689077     19.40384012209682
  H   6.71425806890208     -6.16620627492925     20.28373074232353
  C   5.61901164956128     -7.58497897689350     19.10915506581023
  H   5.86481037104054     -8.42522983723772     19.74950840804722
  C   4.81618150059408     -7.75615884424087     17.98944612254452
  H   4.41781460005484     -8.72877223491838     17.72431950143380
  C   4.52824927522123     -6.64047849020228     17.20947939516926
  H   3.89880193530049     -6.73446253249297     16.32604216236848
  C   0.12747446769202     -0.18543951844593     17.32680479982201
  C   1.58997885431214     -2.38531464136212     16.38750777830735
  C   0.96570314350949     -0.90505188234810     18.19137845322587
  H   1.08569984968550     -0.57515505502169     19.21856022198990
  C   1.71602724460106     -1.97350285875753     17.71994046002065
  H   2.41979718120655     -2.49089523335048     18.36525868599836
  C   0.70418284736502     -1.71579766765068     15.53204074426698
  H   0.62167884572311     -2.03323967846043     14.49944738304979
  C   0.00599044109118     -0.62321987128155     15.99501643069697
  H   -0.63648883035285     -0.08068881102748     15.30927533165016
  N   2.46447207890297     -3.37987096750399     15.91665392580630
  N   2.07515451955799     -3.96639695271912     14.87067486884149
  N   4.33748901718609     -4.56311603610343     14.54410613377847
  C   3.05221541859177     -4.80320680222226     14.28618772092999
  C   2.62375596893389     -5.80328769187458     13.41275098718815
  H   1.56624667673832     -5.93898788694951     13.21983078130413
  C   3.59698891360041     -6.60638802528989     12.83201345991964
  H   3.31483024222821     -7.41176948130411     12.16242861437396
  C   4.93878651762576     -6.37054263322192     13.10861187413836
  H   5.69892562024133     -6.99613119334533     12.65839374251298
  C   5.27995857999759     -5.31931750699225     13.97013477341550
  N   6.80483239823816     -4.06462698277942     15.32335349643003
  C   6.67642223351826     -4.96543998456277     14.32993493170370
  C   7.78414345246861     -5.51830887161522     13.68534178546888
  H   7.66603187192081     -6.22779319978524     12.87553119260641
  C   9.05787988681251     -5.13567496652556     14.08551130612904
  H   9.93230202192623     -5.55303365386346     13.59797890825979
  C   9.19053919712066     -4.21001840632394     15.11170289313374
  H   10.16573428279447     -3.88301176890980     15.45376352249875
  C   8.03306000732091     -3.70380250772510     15.69499759788615
  H   8.09737257739102     -2.97316238593177     16.49973775941438
  Li  4.85310484055311     -3.58407615533368     16.26966021599113
  C   3.60489683338654      6.70722807582560     16.24380298994344
  C   4.72327366063584      7.19696176585842     16.93481215109109
  H   4.63459158996219      7.44687361418541     17.98745644335320
  C   5.91067563779650      7.45348444426587     16.26360078215904
  H   6.75849644184389      7.89840506543677     16.77609029202471
  C   6.02362793380146      7.15810392811294     14.89922271213158
  C   4.93192165456634      6.60765818033093     14.21306876991143
  H   5.02418173543527      6.39547256861160     13.15462280589152
  C   3.74061351480923      6.41003046488280     14.87509816190077
  H   2.88432000597538      6.03371576822032     14.32411009896948
  N   7.19916972203682      7.54915485691549     14.23553112980923
  N   7.40949978351393      6.95097150497167     13.14553239324807
  N   8.82829974746961      8.76139255803775     12.59676533425828
  C   8.47293338196830      7.49350373882956     12.38932288809764
  C   9.05922203410667      6.68824876471114     11.41215763854215
  H   8.71444893911010      5.67105729278975     11.26921009622812
  C   10.09154503445434      7.23786615098669     10.66293569706425
  H   10.59404570033336      6.64614741931091      9.90531779080259
  C   10.47560180067673      8.55545190742274     10.88371099269384
  H   11.27977155392800      8.98665241783155     10.30133108452540
  C   9.80617345883643      9.30321605650543     11.86170538499776
  N   9.51017638548667     11.21732650006107     13.26844942698088
  C   10.11745659157111     10.72137241846452     12.17319438280112
  C   10.97189620126541     11.49616810853098     11.38716296069498
  H   11.44132218268631     11.09033419732577     10.49946211800235
  C   11.20894409691384     12.81617825436642     11.74821223424583
  H   11.86893678762629     13.43601394251358     11.15099965630173
  C   10.58400395909353     13.32704774033021     12.87780629001083
  H   10.73901075372240     14.35242053132840     13.19334346419441
  C   9.74336537281351     12.48671733173360     13.60125679805677
  H   9.23295591842012     12.85248951310312     14.49076481144097
  C   2.51800558444667      9.36488933256141     13.25115784520793
  C   4.95081037807333     10.34385863431863     14.27212221987933
  C   3.67255263104473      9.40511853763224     12.45037195026229
  H   3.63182403249861      9.05338903025854     11.42506955382984
  C   4.87673212822577      9.86719488885778     12.95729419437802
  H   5.77719011395387      9.86236399484618     12.34997445098790
  C   3.79229129189818     10.37330258075995     15.06109657986418
  H   3.85600702362350     10.72153864067949     16.08488206049048
  C   2.60556622860797      9.88948906429481     14.55636300638275
  H   1.74483665242631      9.85361331179494     15.21442346685274
  N   6.22010853196475     10.67339358287325     14.77957354189332
  N   6.19453390338359     11.36533882388944     15.83382219913793
  N   8.43822077397900     10.68237565788442     16.16756373823962
  C   7.45519032523487     11.53922926244054     16.44550441141103
  C   7.59050751617142     12.58074004923737     17.36485702869964
  H   6.75097230168222     13.23434553455581     17.56956860734131
  C   8.82744112451737     12.74251331017164     17.97482470357126
  H   8.98901323808313     13.54991946549496     18.68094459061890
  C   9.85983155614037     11.86002576674044     17.67945478016544
  H   10.82593810140686     11.98476117632156     18.15163600769524
  C   9.62520447045901     10.82063432276981     16.76916454074561
  N   10.31580428934416      9.02036357169775     15.35039084279031
  C   10.64867474703655      9.81502590272824     16.38556975746263
  C   11.87081747646292      9.69140059667542     17.04882509566002
  H   12.11938568824534     10.32485888026631     17.89137706257756
  C   12.77468997056812      8.72677069478203     16.62275625610980
  H   13.73027971838013      8.61459796766946     17.12355387374385
  C   12.43270398961726      7.91013544454159     15.55331005562763
  H   13.10837117612238      7.14453469863935     15.18957756840513
  C   11.19073650283181      8.09630053001838     14.95432053393838
  H   10.88600676958990      7.47235595716062     14.11541625774768
  Li  8.41799622166496      9.64931412588155     14.39896893588709
  C   -2.08005878879036     12.26255499344881     15.73925351634903
  C   -2.16399116319431     13.51293960078636     16.36954930376159
  H   -2.32413668006777     13.56240643009521     17.44202640439188
  C   -2.13552633909360     14.68318797988848     15.62358070548261
  H   -2.26533040343848     15.65197430117357     16.09695236129913
  C   -1.95286696419210     14.62712378565722     14.23636412170953
  C   -1.80902619727313     13.38483513470851     13.60268891777435
  H   -1.68390291756205     13.34955336024048     12.52704486497510
  C   -1.89294231610033     12.22790220467251     14.34493513812894
  H   -1.83155716324036     11.26939278761438     13.83899224654053
  N   -2.04333139597543     15.82741191038965     13.50963875709283
  N   -1.50999392195869     15.78660053916275     12.36800373435960
  N   -2.86398073773875     17.64770124864975     11.82161077247940
  C   -1.77895000210013     16.91737449998607     11.56442466492026
  C   -0.92309856278831     17.17514741310148     10.49263024427822
  H   -0.06811548403821     16.53347957598248     10.31604475037827
  C   -1.20664503197831     18.27678529541332      9.69606808902126
  H   -0.55903411485823     18.53282429845530      8.86440127769343
  C   -2.33098764940544     19.04844456545782      9.96521996036650
  H   -2.55457677104247     19.90785208658586      9.34609072212113
  C   -3.15652987377547     18.69404006173155     11.04013868450695
  N   -4.93578014751428     19.08839653029970     12.59177652762986
  C   -4.39068374465810     19.43246650630864     11.40935174831662
  C   -4.95821009912724     20.40937518736662     10.58953786986880
  H   -4.51986819795070     20.66221195265066      9.63186773850409
  C   -6.11482739220353     21.05325819721172     11.00985041277021
  H   -6.57291372903797     21.81511280561018     10.38834570778840
  C   -6.67444844100791     20.70164818325559     12.23089285540367
  H   -7.57721592150120     21.17810537869529     12.59557667872266
  C   -6.04731914132072     19.71201869466288     12.98162535637158
  H   -6.45830140878986     19.40663768981143     13.94258146147761
  C   -5.21483529679770     11.91030904602279     13.06221212160277
  C   -5.35586097107402     14.58232591588698     13.93333045015522
  C   -5.03569277479605     12.97357971160531     12.16027992576924
  H   -4.83853519424656     12.76724886332090     11.11373701219378
  C   -5.08202248600459     14.29012564294218     12.59121341815508
  H   -4.90477862769542     15.10999971498974     11.90122868432547
  C   -5.60311091184497     13.53448225772467     14.83100408378923
  H   -5.78895142745186     13.76131255943646     15.87384488402994
  C   -5.52572192548470     12.22891220438944     14.39921581235576
  H   -5.63754594030294     11.43847955166044     15.13228556154170
  N   -5.25759068373298     15.92168074117545     14.34847007989598
  N   -5.81761371090444     16.16626084982141     15.45190566412132
  N   -4.47747107312770     18.11561017645650     15.53488593510028
  C   -5.55685973488111     17.45802551044667     15.95893955384064
  C   -6.42223229592839     17.96135670986515     16.93134693920319
  H   -7.27231701526670     17.37350218597978     17.25655365021953
  C   -6.15492856002349     19.22753730358859     17.43517865586242
  H   -6.80955447718667     19.67174678152673     18.17730211781370
  C   -5.03873793852214     19.92397582322341     16.98671047915516
  H   -4.82854020351843     20.91204792726500     17.37602564350084
  C   -4.20331590374597     19.32639327087321     16.03322096972045
  N   -2.41967452028198     19.34511948373699     14.43699268657599
  C   -2.97953613389463     19.96939186242225     15.49111176167730
  C   -2.43714514576905     21.13563149567851     16.03300754475896
  H   -2.88705819694547     21.61762233339915     16.89224354734688
  C   -1.29092306200696     21.67433395286135     15.46317361774275
  H   -0.85284835342470     22.58004540318480     15.86850077985971
  C   -0.71569229868433     21.03293788040135     14.37447529856161
  H   0.17966033119328     21.41855516346078     13.90055545831687
  C   -1.31777246907518     19.87078634444296     13.90203402737204
  H   -0.89372355624731     19.33746502290194     13.05263570474150
  Li  -3.66048100434912     17.65897459084014     13.71058493376208
  C   -9.04281944471241      8.49136036235316     16.45717968669786
  C   -10.19126346052029      8.74540923640568     17.22117585455344
  H   -10.16441601060167      8.59480921671103     18.29579182479404
  C   -11.38390511355812      9.10124060527400     16.60618425511621
  H   -12.29247828713157      9.23870470747115     17.18492577702676
  C   -11.43284293933240      9.27335747919872     15.21758492707707
  C   -10.27585490205605      9.07944702088587     14.45002873582814
  H   -10.32589264155326      9.20036151530891     13.37452542324494
  C   -9.11104130484244      8.67685344539154     15.06447637513488
  H   -8.23277848326842      8.48237621160076     14.45730942459291
  N   -12.68482163277998      9.51958306450022     14.62541842660109
  N   -12.62428838261510     10.03566550021473     13.47723221019094
  N   -14.82953933897306      9.24243379430921     13.15815582703362
  C   -13.86561658365720     10.09216046670451     12.80411413849025
  C   -13.99688461126511     10.99935423327994     11.75208133605596
  H   -13.17087425181137     11.65021600977496     11.49121269703388
  C   -15.21478648669220     11.03601524408924     11.08544513155125
  H   -15.37526633054229     11.73890616343797     10.27501233282615
  C   -16.22873661982725     10.16116787908418     11.45779727356821
  H   -17.17946509016269     10.18774750388967     10.94064086984110
  C   -15.99587113704449      9.25627535639929     12.50211909552893
  N   -16.68305996001889      7.62953033423870     14.11792535616698
  C   -16.99664603155200      8.26576061652604     12.97296357269842
  C   -18.17768985684053      7.99900467009223     12.27875323645281
  H   -18.40840364965149      8.50404189576245     11.34875919932654
  C   -19.06069249279782      7.05564390138112     12.78782439695137
  H   -19.98384175533549      6.83244861387846     12.26394011663954
  C   -18.73915574920092      6.40218188928663     13.96984278189660
  H   -19.39892739967545      5.65775362017568     14.40051181942591
  C   -17.53772121595183      6.72416105650266     14.59377187981990
  H   -17.24907818529908      6.23090881784766     15.52061052685646
  C   -9.82212065079284      5.33074346020926     13.89222989884306
  C   -12.31876029244798      5.97979894346225     15.02107389233125
  C   -10.88145313337665      5.78919738195765     13.08929099502099
  H   -10.74379818149855      5.89177351206820     12.01833598499578
  C   -12.10377388131763      6.13317653972916     13.64588906813972
  H   -12.90907103693086      6.52070908812204     13.02861039340916
  C   -11.29035306463575      5.47316922002819     15.82739207826125
  H   -11.44781538635732      5.38712573103574     16.89569846194127
  C   -10.06901097425291      5.16665868110742     15.27012953443048
  H   -9.26837747297304      4.85538811331894     15.93104259915364
  N   -13.53286764079373      6.44344129936952     15.55725687247090
  N   -13.80809797769614      5.97265573504245     16.69474433017884
  N   -15.30703607747143      7.79040878555656     16.93349917629705
  C   -14.92277847031268      6.57353674000213     17.31915770557683
  C   -15.53465083424053      5.87668942896949     18.36232971917338
  H   -15.16635230553676      4.89898570673606     18.64926474759538
  C   -16.62039089333697      6.47745587481111     18.98554998853228
  H   -17.14338032499741      5.96770604261318     19.78755452667085
  C   -17.03217185922702      7.74167584118487     18.58065632670105
  H   -17.87807987561624      8.21192425564030     19.06566540122452
  C   -16.33715579968718      8.38406235701562     17.54732572070911
  N   -16.03840574184423     10.11147951262677     15.91736180547511
  C   -16.67636428546456      9.73912176297031     17.04347805219236
  C   -17.58446383138178     10.57847382208129     17.69111143094058
  H   -18.07676777031542     10.27302694216883     18.60618956372117
  C   -17.84419518405965     11.83279150862247     17.15426349682180
  H   -18.54578213141507     12.50121148249472     17.64163099294458
  C   -17.18828662349329     12.21579637827091     15.99207894086866
  H   -17.36030250883960     13.18638544545781     15.54115673072121
  C   -16.29445494912184     11.31910985055999     15.41484584311159
  H   -15.75949357042598     11.58530967755001     14.50449168826611
  Li  -14.85196490784224      8.44922574908761     15.05029107411544
