   425
 
C        -3.54346406763628        -2.14620344328115         3.22016397777756    
C        -4.36358147656755        -3.13604456310254         3.74325333654098    
N        -2.23503999641670        -2.53028375579221         3.40104147004098    
C        -2.20560600580193        -3.75065453239838         4.03572898612262    
C        -3.51429492036000        -4.15498799254002         4.25939950951997    
C        -4.45585118656769         1.69729778872528         1.61864542643456    
C        -3.50172797478604        0.881672655393772         1.00829940550425    
C        -5.19272305144607         1.16676273994074         2.68034973996409    
C        -4.91465228628186       -0.875936402457199E-01     3.17954341658341    
C        -3.24450340403821       -0.386453830712113         1.48416176601626    
C        -3.90851224617007       -0.873540880763699         2.61260409902520    
C        0.586088762788918E-01    -3.76528199042835         5.09456070835178    
C       -0.996466713281783        -4.43621699326561         4.47239875898848    
C         1.12907567048036        -4.46335547338869         5.61585853002309    
C         1.16974617549568        -5.85769160453592         5.57187569367581    
C       -0.911791180731661        -5.82619914214566         4.34970612988949    
C        0.139925549957488        -6.52292414131951         4.90262575782563    
C        -3.96861494407688        -5.35394903124900         4.95876377743792    
C        -3.35978973360078        -5.77268855781195         6.14185796839687    
C        -5.06998356352631        -6.07328768965730         4.49190626817281    
C        -5.60175124612591        -7.10848945977838         5.23098075616341    
C        -3.86948258316859        -6.83389218803762         6.86043827134088    
C        -5.03086998661062        -7.48877500974974         6.44693932846297    
C        -6.56594428234915        -2.59308144258539         2.72886490046178    
C        -7.92637011503652        -2.40142047284291         2.84178718450942    
C        -5.82145744454022        -3.08432047757195         3.80260040910601    
C        -6.50381403129359        -3.47381567674952         4.95554893615259    
C        -8.60159101642386        -2.73015654676327         4.01870719120364    
C        -7.87067691720445        -3.31757295213801         5.05297448539784    
C        0.156230384133025        0.271100459648767         3.17151779529765    
C        -1.01234243011157       -0.427672383467523         3.40022195328809    
C         1.28446328123700       -0.365784380760659         2.65235423733110    
C         1.17256527328992        -1.70419654640739         2.27346662325583    
C        -1.09332581938082        -1.78025266770647         3.07346531267107    
C       -0.483351365835061E-02    -2.39814152504588         2.46080318433940    
H        -2.97213042853209         1.23934454051144        0.138596024458605    
H        -5.95969699957149         1.76189525331225         3.15424067363147    
H        -5.46577677356928       -0.460330458142112         4.03037659743221    
H        -2.51765298433174        -1.00581379269159        0.979923255339435    
H        0.317234017225826E-01    -2.68966749751633         5.19827597138266    
H         1.91879570733899        -3.91562797116906         6.11031370340504    
H        -1.69145220253982        -6.35818678072342         3.82657222666878    
H        0.178623042858767        -7.59626790842614         4.79801695579449    
H        -2.49139481798929        -5.24574837021583         6.51040139194789    
H        -5.51954585872770        -5.80300376510988         3.54840766930905    
H        -6.46005084996759        -7.64377252589393         4.85444759784402    
H        -3.38553637115331        -7.12464028434061         7.78162820049946    
H        -6.06615762009060        -2.34701409959241         1.80410265626118    
H        -8.47962130014243        -2.01150366454382         2.00100712550985    
H        -5.95394349769184        -3.88350899641201         5.78997472374829    
H        -8.36857700760090        -3.61215034996407         5.96557188959714    
H        0.204163686693144         1.31329363144330         3.45147029845105    
H        -1.85928667320281        0.737754595674301E-01     3.84546483365070    
H         2.01104332512779        -2.19924207313827         1.80884508078679    
H       -0.806667114538583E-01    -3.42890995183821         2.15074504594088    
C        -19.2370855744781        0.257264987623424E-01     2.58031997873961    
C        -18.4112410248337        -1.07664424315021         2.43087363014400    
C        -18.6739730781160         1.23992014572520         2.93646234958712    
C        -17.2969256032885         1.30393202138772         3.14476344861127    
N        -16.5136402002924        0.232360211855522         3.03277089942839    
C        -17.0536102806888       -0.914499714123744         2.67274889879617    
C        -16.6052652678229         2.54555994975369         3.52015416573479    
C        -17.1448100266494         3.82097838223427         3.32169890882716    
C        -16.4039831196270         4.92792284348769         3.70563640576863    
C        -14.6972816418236         3.43480022521643         4.43263593273889    
N        -15.4082051451223         2.38133265484889         4.05322495061239    
N        -13.4489620393934         3.23095657393467         4.96492854803107    
N        -13.2213607788952         2.08858396176084         5.45504915074994    
C        -11.9440624262019         1.85664807609958         5.90161211202770    
C        -11.7249110748323        0.687688252873740         6.64067909030418    
C        -10.8568247912778         2.70307774405601         5.62472121226647    
C        -9.59283482790766         2.36700814907956         6.04726258859384    
C        -10.4546690974595        0.355314029235858         7.04925864555049    
C        -9.36404626061816         1.17878374658368         6.74850823646372    
C        -15.1550943349652         4.74710463835662         4.27074821618046    
H        -20.3005456334070       -0.550989510924587E-01     2.41370008277211    
H        -18.8073468851675        -2.03421736046622         2.13429621855837    
H        -19.2967432589986         2.11106137537435         3.06100903094074    
H        -16.3659400226330        -1.74301244095036         2.56862861223997    
H        -18.1064958920686         3.95030863847987         2.85351799842737    
H        -16.7980629410485         5.92177457737861         3.55699533939004    
H        -12.5781150250312        0.719480849194347E-01     6.88596778542191    
H        -11.0351627737945         3.60537565945671         5.05985506687618    
H        -8.75799115014958         3.01162292337473         5.81387614068012    
H        -10.2932953094289       -0.542702271430926         7.62630501490021    
H        -14.5473600376401         5.57481315571283         4.59672260993604    
C        -18.7600061705015         3.42759775580271         6.72575233985448    
C        -17.5561291898455         4.02634469786231         7.06008380479300    
C        -18.7726262127545         2.07746187415557         6.41732175600225    
C        -17.5692002395876         1.37391826948398         6.44183926199382    
N        -16.4102689827195         1.96367551217340         6.73018416910326    
C        -16.4093936253974         3.24360988338346         7.04340154281365    
C        -17.4797728333802       -0.613659314117855E-01     6.13727334176660    
C        -18.5737032642753       -0.931626765834618         6.19384994628060    
C        -18.3791181841418        -2.27160114650704         5.89699063979114    
C        -16.0807124495871        -1.77259129317018         5.52366956659370    
N        -16.2733486471165       -0.493572098778735         5.81765609304015    
N        -14.8121338147169        -2.19616054425294         5.21799464790582    
N        -13.9996976466874        -1.31833499870841         4.81101330624665    
C        -12.7086398257088        -1.73527849255833         4.59807654027251    
C        -11.8607781421937       -0.879373203075080         3.88465896622946    
C        -12.1962763293150        -2.94731469812855         5.09079359635820    
C        -10.8756814590890        -3.27247513015589         4.89454537128379    
C        -10.5445176542995        -1.22179509130309         3.67985146829388    
C        -10.0225257867339        -2.41733470779476         4.18828464970165    
C        -17.1145507364192        -2.71506705732845         5.55664749931893    
H        -19.6757752811657         3.99898680805052         6.71413420385619    
H        -17.5072206381235         5.06944617107156         7.32723485018383    
H        -19.6968918615596         1.59015535966447         6.15174277742017    
H        -15.4448301280409         3.66214369100805         7.29762641090523    
H        -19.5479989112317       -0.579708231911014         6.48994902597682    
H        -19.2076770976063        -2.96209749990077         5.93961411853395    
H        -12.2731584658148        0.401605089155180E-01     3.49467594765367    
H        -12.8571228528600        -3.60390038206861         5.63599982602145    
H        -10.4944381261751        -4.21064957724202         5.27003063423248    
H        -9.89338110135839       -0.548711550163978         3.14265694196132    
H        -16.9148807134633        -3.74378144759729         5.30647289687559    
Li       -14.9079834775728        0.709957317639727         5.01216352138746    
C        -2.87573487485694        0.939468086047690E-01     7.77983960323035    
C        -4.06750045528018       -0.521307916553103         8.13186746820317    
N        -1.83932923761013       -0.689461312904371         8.22776494357877    
C        -2.34932729816824        -1.80284200580922         8.84986857166659    
C        -3.73372810496712        -1.72692633111245         8.80958171020742    
C        -2.42616067824498         3.63892315579276         5.45096270707501    
C        -3.37688588644359         2.66940778019825         5.13210246319358    
C        -1.60977376142522         3.42562110539425         6.56176355813386    
C        -1.74955588843314         2.29090303904543         7.33691471732992    
C        -3.50077503632546         1.52604499188352         5.88804566196140    
C        -2.69542592709793         1.31746351926832         7.01002550947732    
C       -0.477125942589608        -3.37982186271315         8.52264711505188    
C        -1.51201200943352        -2.89684587876445         9.32498396803010    
C        0.296588182114646        -4.44152129066266         8.93381093331054    
C        0.486772148143130E-01    -5.07881557159895         10.1485977054286    
C        -1.75501935667526        -3.52613021177371         10.5472466286840    
C       -0.994697213053307        -4.60738938794563         10.9459248406199    
C        -4.66958471954249        -2.74761670132424         9.27388482742136    
C        -4.41425664182136        -4.09050221399904         8.99680645277937    
C        -5.84596199665690        -2.42110051389778         9.94856809553370    
C        -6.74799055850001        -3.40295024922763         10.3090132991387    
C        -5.30193905392682        -5.07112187289004         9.37856707791063    
C        -6.49151483053768        -4.74527383942835         10.0290965310395    
C        -6.34298349879505       -0.959657669108978         7.28821955090515    
C        -7.61815232770278       -0.551483841031645         6.96599618746935    
C        -5.41491860206344       -0.585132136412364E-01     7.80858003527062    
C        -5.80421704862566         1.26943960366462         7.98354931069066    
C        -8.00738670981666        0.777287390649549         7.12959132969156    
C        -7.07588426687551         1.68294487469544         7.63836189938559    
C         1.23781667921904        0.110600864584854         6.38729015647056    
C       -0.847273099205768E-01   -0.147458195219234         6.67013973390664    
C         2.20592572727088        0.503532634530362E-01     7.38810988539154    
C         1.80890113593882       -0.274429932658512         8.68420867387348    
C       -0.479744718180392       -0.442217454060828         7.97211155204386    
C        0.477923165772793       -0.504284564642289         8.98024552098755    
H        -3.99587846953070         2.80285672506358         4.25833791875847    
H       -0.885133300865863         4.17506506537496         6.84287819524957    
H        -1.13157864712799         2.16681217001872         8.21386093026596    
H        -4.22183615268610        0.774006932397841         5.60866318511081    
H       -0.296904265883879        -2.93865703471242         7.55515410194318    
H         1.07694578424464        -4.81719638776572         8.28975275656670    
H        -2.54755275232289        -3.16055276101345         11.1823069916615    
H        -1.19041018064230        -5.07449239167311         11.8992593158671    
H        -3.51881936932852        -4.35979710395983         8.45963653770619    
H        -6.05111018148883        -1.38936237196425         10.1916114635115    
H        -7.64836714925889        -3.13076774805784         10.8391778175710    
H        -5.10153765727525        -6.10278867818554         9.13372089396837    
H        -6.05158765945839        -1.98502475833262         7.12508350576075    
H        -8.31665234024932        -1.25773220914885         6.54486169628291    
H        -5.10378194230185         1.97817596180472         8.39974966280079    
H        -7.36321882702789         2.71159874794317         7.79712949949382    
H         1.53638335228417        0.325438319811606         5.37275494840482    
H       -0.820574183728922       -0.128938905482799         5.88235247791906    
H         2.54348267743583       -0.312692170556239         9.47394786249393    
H        0.177069354040528       -0.729461971638272         9.99192588146431    
C        -4.43942751128269         11.4364073140029        -3.65623828758060    
C        -5.08785419314904         10.2132766381880        -3.71069020152513    
C        -3.38122125823907         11.5938443521880        -2.77654859146742    
C        -3.01665403428603         10.5179633747136        -1.96835437770520    
N        -3.66699238582537         9.35578982121795        -2.00103499707511    
C        -4.65909822445887         9.20682418085158        -2.85547218519369    
C        -1.90456521815695         10.5829696811439        -1.00930049858645    
C       -0.880058972395445         11.5335843073193        -1.07759055258195    
C        0.127992662030541         11.5005430359208       -0.126889381627655    
C       -0.965198381515015         9.62481962864092        0.851546145493120    
N        -1.92075294709781         9.65726072949473       -0.676240420857475E-01
N       -0.999859201167553         8.63901773354044         1.80582157443417    
N        -2.12064484393842         8.09646472347649         2.02091739031935    
C        -2.13292075927009         7.05028022164628         2.91117152208378    
C        -3.38306579278310         6.57776518132658         3.32824277824604    
C       -0.971116127588975         6.41947594336791         3.38772273086618    
C        -1.06657110236123         5.33595663856927         4.22857203220912    
C        -3.46796493189294         5.48465543623568         4.15855648772441    
C        -2.31457231832219         4.83656903656692         4.61362011367801    
C        0.995816734752010E-01     10.5325271357542        0.860178180326469    
H        -4.74536500832787         12.2518485489547        -4.29391158525731    
H        -5.90171754745216         10.0434759370694        -4.39664988639868    
H        -2.86313903241741         12.5372434429871        -2.71483915629318    
H        -5.13115832730644         8.23353975140788        -2.85920045581619    
H       -0.852877853356589         12.2645638254154        -1.86857360393891    
H        0.930985227574101         12.2209669385545       -0.163234854828156    
H        -4.26517656038455         7.10232101998327         2.99106461053618    
H       -0.110496957431451E-01     6.79343550209125         3.06613896757716    
H       -0.169752548190172         4.84536623142052         4.57852025578223    
H        -4.43432490069565         5.13002192532157         4.48375952404146    
H        0.852790695072824         10.4739135508648         1.62827431466257    
C        -3.07717881247646         13.7857987490010         1.04275644286902    
C        -2.35769532026437         13.1126693596754         2.01681970763394    
C        -4.11654196244379         13.1289010562718        0.405230642454362    
C        -4.39152649132896         11.8086724836932        0.759122510374523    
N        -3.67248918782747         11.1559833838263         1.67097083544943    
C        -2.69891888082634         11.7943879542938         2.28822766486386    
C        -5.47959001869703         11.0307462005224        0.149317960170755    
C        -6.56270993315687         11.6120025689587       -0.519294095440756    
C        -7.54340943741758         10.7879114157913        -1.04879230553816    
C        -6.31273608604980         8.92562542000190       -0.219359222524657    
N        -5.38215392971058         9.72134554594488        0.291223854725354    
N        -6.19812096062385         7.57145291840858       -0.331004273586096E-01
N        -5.04495745801629         7.12467645153076        0.223691566202545    
C        -4.96232770543243         5.78314403518601        0.508130755292901    
C        -3.69140567911345         5.19612476372544        0.505323593413732    
C        -6.07689482344262         4.99571236860533        0.841858318123506    
C        -5.91443591703602         3.67572094424561         1.18785754397298    
C        -3.54149484068689         3.86953707528446        0.836821210687830    
C        -4.64525478469018         3.08717417335046         1.19657277814525    
C        -7.43104696012392         9.41761688835565       -0.901455928011857    
H        -2.84046726070877         14.8081110098140        0.789708425590676    
H        -1.55614787528043         13.5955207269273         2.55177662633766    
H        -4.68915435467501         13.6317259807099       -0.357294942624871    
H        -2.16908448609950         11.2247738699350         3.03992973212771    
H        -6.65508758304513         12.6823331062059       -0.600463053496792    
H        -8.39055780757533         11.2149288378280        -1.56359939206300    
H        -2.84596004341472         5.80848309184120        0.226238513036319    
H        -7.05388754018713         5.45443344179877        0.836450922662836    
H        -6.77880441491213         3.07729910212619         1.43484548743118    
H        -2.55604559931787         3.42840445012732        0.848386741922294    
H        -8.16097224796833         8.73502936291813        -1.30389595819348    
Li       -3.62368099695348         8.81582532590598        0.528324732479395    
C         12.2718518731817         4.19677478800701         5.53835653508405    
C         11.5623400033550         3.60183484276495         6.56892833555392    
C         11.6076756942680         4.51357118461096         4.36487287300721    
C         10.2511063989922         4.20943034165235         4.26036625121134    
N         9.58380768183729         3.60337683704915         5.24121545454511    
C         10.2175123416538         3.32423578868140         6.36237194307048    
C         9.45500096165308         4.51958320103463         3.06433853287083    
C         9.83776915372053         5.46845850380485         2.10925300910135    
C         9.00767725982918         5.69984220813574         1.02391812765386    
C         7.52391391941972         4.06391652401735         1.91432786312645    
N         8.32065664927588         3.85214020467664         2.95359045120601    
N         6.33833972652342         3.37781069631061         1.83757169377871    
N         6.25182793984315         2.30115914422485         2.49062372209309    
C         5.02305710248331         1.68141750292948         2.47205773604542    
C         4.96200151941917        0.344427974248652         2.88090738688478    
C         3.83750941733185         2.33753221245653         2.10320681237644    
C         2.63257785603645         1.67724811124132         2.15886599556946    
C         3.75410441487278       -0.314920109856518         2.91013849825526    
C         2.56805262954560        0.338967794007101         2.55798790782272    
C         7.82324869482188         4.99455502099010        0.913322136666981    
H         13.3221118834170         4.42012092446813         5.64867824006209    
H         12.0368428157081         3.36066985429679         7.50616181389563    
H         12.1396714262367         4.97500022638762         3.54863520945329    
H         9.61911724705310         2.86036249106429         7.13498233113354    
H         10.7472736300840         6.03452995430173         2.22364397077106    
H         9.28078063372034         6.43087300772027        0.278252365804597    
H         5.88310903521975       -0.151400768191451         3.15174441707070    
H         3.89327272299066         3.36953212020882         1.79198616502866    
H         1.72705654401532         2.18837752692906         1.86675213783268    
H         3.71264607214545        -1.34434814108484         3.23332655864126    
H         7.14886234310379         5.13104054844928        0.842818167301027E-01
C         11.6868301650407         2.65589600189326        0.312941894172329    
C         10.4352939122971         2.57562978938740       -0.275852169467130    
C         11.8559752550430         2.15877444110583         1.59466364803065    
C         10.7558832214642         1.60736204156109         2.24995250612603    
N         9.54686200484217         1.56638195245036         1.69139532404793    
C         9.39862797020735         2.02201364623488        0.463712719382799    
C         10.8355806520458         1.04416556782239         3.60552746581679    
C         12.0354971766402        0.655148811086569         4.21230422725314    
C         11.9974866751082        0.125229318497263         5.49228422676811    
C         9.63363982204306        0.408669987296893         5.45331770923323    
N         9.67754235949955        0.905797182599081         4.22437119885310    
N         8.41215628667481        0.261900239368356         6.06277618416764    
N         7.46373677131908        0.957444335853531         5.60302053697638    
C         6.22196521516751        0.740381331407642         6.15051201908816    
C         5.20227298298034         1.62691198645465         5.78567053636255    
C         5.92261547989118       -0.332879352091734         7.00637019094249    
C         4.63295890754749       -0.531662296357412         7.44195108037299    
C         3.91229398186079         1.40772964994091         6.20944370367529    
C         3.60321124964784        0.316588154559474         7.02740554526823    
C         10.7808197847898       -0.835409724837446E-02     6.13661510208405    
H         12.5201842800166         3.08888787113395       -0.219144431057360    
H         10.2672899824859         2.93046546965190        -1.27964004976251    
H         12.8203697954082         2.21184608547677         2.07340551504177    
H         8.40303292077141         1.93558733369539        0.495714984526111E-01
H         12.9740006018565        0.736850248940876         3.68958574040590    
H         12.9100028206618       -0.186545826588428         5.97718988935085    
H         5.46161947370135         2.47812497676910         5.17347705741144    
H         6.71797073930233        -1.00323609127020         7.29401175176837    
H         4.40253028799927        -1.36852985812876         8.08493504059798    
H         3.12640883515161         2.09041032641429         5.92290215656876    
H         10.7009368371596       -0.402765995883391         7.13597171645806    
Li        8.10661590139203         2.05064370900200         3.77523958128511    
C         7.57884377284563        -12.2627744679792         13.8333455993316    
C         6.41236719549241        -11.6765680267268         14.2972716547074    
C         8.10731351747414        -11.8365939024439         12.6260982021116    
C         7.43663648775541        -10.8418815995640         11.9158780612063    
N         6.29669202904561        -10.3075892951058         12.3507004955127    
C         5.81157935292258        -10.7029367579614         13.5103531528348    
C         7.92066670663873        -10.3170115779425         10.6311604070178    
C         9.24583650745608        -10.4393858875103         10.1990231774026    
C         9.60342825939323        -9.89850979328984         8.97402552294645    
C         7.34688563541693        -9.17863096900685         8.72435787985523    
N         7.01443081071147        -9.69187575110024         9.90133575563826    
N         6.39282785177833        -8.51394749653318         7.99632125045965    
N         5.18438370603415        -8.78300066228462         8.24855280984881    
C         4.24690686072611        -8.04543296364301         7.56381358065582    
C         2.92415384039174        -8.50347044428123         7.57463344109636    
C         4.54839586894266        -6.85298267184807         6.88500377676831    
C         3.55666594922333        -6.14708434696573         6.24648502725438    
C         1.94180670508404        -7.79892425449855         6.91729505213191    
C         2.23582961027811        -6.60818889203683         6.24197022109696    
C         8.64777544289947        -9.25043053148195         8.21343544690044    
H         8.07489100282964        -13.0321322857528         14.4053762909698    
H         5.98093984188883        -11.9646522605196         15.2420674989694    
H         9.01249820170141        -12.2799003673473         12.2434436553730    
H         4.90035584167682        -10.2138807700533         13.8274904800475    
H         9.98791104465423        -10.9196515526120         10.8150108312544    
H         10.6212064539787        -9.97665436943207         8.62312064425413    
H         2.70615523786740        -9.42659331706823         8.09220854722943    
H         5.56950621693179        -6.50314870008790         6.88433064486088    
H         3.80338603796750        -5.23854061992215         5.71676891936985    
H        0.922779187803446        -8.15478544473342         6.93876656720635    
H         8.87329784582285        -8.82352327808077         7.25027675711928    
C         8.24786005753834        -13.8147084600450         8.72253608120621    
C         8.02370807025138        -12.9412089989876         7.67067233085565    
C         7.33580034376745        -13.8553503707627         9.76401803648902    
C         6.23198338788119        -13.0046982870554         9.72139129121290    
N         6.04147822214889        -12.1422014924274         8.72404001560236    
C         6.90192293626965        -12.1249362383777         7.72603701222342    
C         5.20557384200310        -12.9783390106084         10.7735876971085    
C         5.00505778989794        -14.0205900046899         11.6853952403897    
C         4.00191559642013        -13.8960442522495         12.6338928319233    
C         3.49948302091160        -11.7610774083322         11.7072991850736    
N         4.45439159235132        -11.8926609128771         10.7960170030412    
N         2.72680596799599        -10.6264824479414         11.6902685965404    
N         3.21954544694164        -9.62029380501328         11.1065911480888    
C         2.41487123234616        -8.51451435944555         10.9952544171682    
C         3.01483557518337        -7.33375598675597         10.5410651340219    
C         1.03510053419684        -8.52301930333899         11.2614545890526    
C        0.279599765416525        -7.39818002691751         11.0289747986458    
C         2.24842007424610        -6.21846905035453         10.2993283304468    
C        0.866437439885559        -6.23741333587554         10.5162840090848    
C         3.22577822126251        -12.7516433711063         12.6564840458003    
H         9.11259921980123        -14.4607569171006         8.72841203280495    
H         8.69774014293931        -12.8948238485257         6.83083052235398    
H         7.48995416924082        -14.5258624170503         10.5939430811356    
H         6.68050714995899        -11.4270506911652         6.92968393370524    
H         5.59673650220415        -14.9198007550212         11.6399520366581    
H         3.82546643539773        -14.6900958928882         13.3433997630965    
H         4.08524292284301        -7.33006658291418         10.3948115250864    
H        0.583675774100520        -9.43381474021695         11.6241479791603    
H       -0.785045957577305        -7.41632898169563         11.2101338095793    
H         2.71459828411418        -5.30968744667598         9.94924814309478    
H         2.44339432115340        -12.6029217185619         13.3820108050938    
Li        5.08802230462115        -10.1438959033335         10.0712104543608    
C        -12.3101772745147        -12.9656539121815         14.5986132676036    
C        -12.3393892964265        -11.5805098032920         14.5850614170478    
C        -11.2637073264438        -13.6187955467996         13.9689879369561    
C        -10.2852969812740        -12.8565164387456         13.3322410517119    
N        -10.3380477121693        -11.5262899507933         13.2936182222960    
C        -11.3248694921961        -10.9113410085088         13.9136061882748    
C        -9.13435823554514        -13.4553113044220         12.6413522872800    
C        -8.67964991121044        -14.7557675744405         12.8847476971967    
C        -7.57826648721034        -15.2217895777886         12.1838843515105    
C        -7.48242173889696        -13.1095897155282         11.0876941785444    
N        -8.53089091372727        -12.6679047647962         11.7694383057867    
N        -6.86300710565480        -12.2633615377741         10.2029715354411    
N        -7.54490057048807        -11.2940680217108         9.76441918106258    
C        -6.88504301089504        -10.4102468110739         8.94489604739118    
C        -7.65907824487038        -9.49871389058158         8.21677144434187    
C        -5.48572949546878        -10.3611278702521         8.82770734862920    
C        -4.88947001026918        -9.42262134110960         8.02006716286538    
C        -7.05288067366112        -8.57325840721839         7.39909999046396    
C        -5.65861590401052        -8.51196628971744         7.28729163731611    
C        -6.95671101556960        -14.3940260423576         11.2672790911559    
H        -13.0835106187014        -13.5288048530210         15.0986944968692    
H        -13.1248716209721        -11.0343601011199         15.0816127164304    
H        -11.2207612470427        -14.6960324043897         13.9639562801739    
H        -11.3002835235490        -9.83060169865928         13.8748218205079    
H        -9.15439763538279        -15.3804002576954         13.6231571840716    
H        -7.20648128157828        -16.2197954285529         12.3596234517718    
H        -8.73455057431131        -9.55683963126251         8.30412463105975    
H        -4.89514493883154        -11.0669884887656         9.39164505627844    
H        -3.81341817574262        -9.40234457386773         7.92832927568398    
H        -7.65679380326536        -7.86606264153282         6.85072504535571    
H        -6.10548813030463        -14.7140972457171         10.6895938358614    
C        -11.2232588591242        -15.8642562567560         10.2685588583361    
C        -10.0736438085714        -15.6632356502634         9.52177168677044    
C        -11.9569464755444        -14.7627175474748         10.6764941930769    
C        -11.5024979621812        -13.4905186068559         10.3318421461292    
N        -10.3779160569646        -13.3032835951467         9.64292705016685    
C        -9.69720590212487        -14.3569926278360         9.23933287227533    
C        -12.2117456310572        -12.2610814193055         10.7146114724396    
C        -13.5600946290155        -12.2295839685680         11.0859980887105    
C        -14.1326578529975        -11.0128646281961         11.4228818365287    
C        -12.0225501623734        -9.99267320052240         11.0031107117799    
N        -11.4855308664368        -11.1590152294472         10.6708607638603    
N        -11.2418073418051        -8.86559426334569         10.9325335191002    
N        -9.99188775401031        -9.04482576850960         10.9815138360439    
C        -9.20111756291801        -7.93606427587782         10.8176463614240    
C        -7.83472853091914        -8.08132050428607         11.0878012925373    
C        -9.67942278399068        -6.69657496208357         10.3593646334028    
C        -8.80710219502293        -5.65715073908397         10.1405565802552    
C        -6.96967149664498        -7.03814484319522         10.8573455136503    
C        -7.43513820384744        -5.81512802962462         10.3615304426955    
C        -13.3627956200175        -9.86490440721481         11.3837229481861    
H        -11.5491472989287        -16.8617255331894         10.5217441188001    
H        -9.48641328471743        -16.4946214208204         9.16711463944129    
H        -12.8537606414858        -14.8939098325201         11.2602346452727    
H        -8.80961351957855        -14.1458582309117         8.65813274442287    
H        -14.1573213751032        -13.1262924285593         11.0854839460619    
H        -15.1728812661453        -10.9638214731652         11.7069078055466    
H        -7.49192355953562        -9.02499885493304         11.4869724688465    
H        -10.7354200883293        -6.59056720512362         10.1626179939441    
H        -9.17599005926677        -4.71400425156093         9.76470374416201    
H        -5.91842803116378        -7.15313669588517         11.0744312341595    
H        -13.7587452515342        -8.89895065542105         11.6498899993298    
Li       -9.50259106819815        -11.1910120093339         10.8653763152112    
