425
Changed N position around one pyrrole ring starting from 1a_alpha_app_input.xyz in Avogadro
C     -3.54337    6.22454   12.38253
C     -4.24737    4.98897   12.55059
C     -3.29734    3.97169   12.63452
N     -2.03726    4.55483   12.50670
C     -2.17984    5.93515   12.36941
C     -4.10730    7.58192   12.41954
C     -3.66364    8.60403   11.56953
H     -2.96791    8.36725   10.77096
C     -4.04448    9.92369   11.77661
H     -3.61892   10.69344   11.14138
C     -4.90478   10.28070   12.82793
C     -5.42300    9.23677   13.61324
H     -6.11354    9.45548   14.42086
C     -5.02891    7.92487   13.42005
H     -5.40452    7.15790   14.08775
C     -5.69438    4.87044   12.78606
C     -6.62536    5.58374   12.01861
H     -6.28312    6.14612   11.15596
C     -7.96459    5.63933   12.38314
H     -8.63628    6.26375   11.80330
C     -8.43956    4.97070   13.52261
C     -7.51827    4.18224   14.23286
H     -7.84370    3.62751   15.10644
C     -6.18046    4.14314   13.88281
H     -5.49034    3.57751   14.49934
C     -3.53364    2.57304   13.00010
C     -4.58221    1.85301   12.40859
H     -5.11961    2.29024   11.57374
C     -4.98889    0.62793   12.91832
H     -5.85122    0.14257   12.47387
C     -4.35483    0.05122   14.03086
C     -3.24391    0.73356   14.55588
H     -2.70541    0.31981   15.40105
C     -2.84987    1.96521   14.06523
H     -2.03181    2.48325   14.55273
C     -0.81519    3.87340   12.77751
C     -0.49839    2.67432   12.14148
H     -1.14484    2.28969   11.36024
C      0.60258    1.93501   12.56135
H      0.77693    0.96967   12.09970
C      1.44070    2.38188   13.59641
C      1.15225    3.64207   14.14821
H      1.77439    4.05396   14.93405
C      0.03697    4.36320   13.76712
H     -0.18891    5.30105   14.25804
C     -1.04365    6.85747   12.41593
C      0.15589    6.65359   11.71869
H      0.23777    5.82855   11.01864
C      1.26409    7.45852   11.95388
H      2.19199    7.22318   11.44343
C      1.22132    8.51455   12.87925
C     -0.01228    8.76581   13.50487
H     -0.10877    9.58293   14.21121
C     -1.10894    7.95492   13.28920
H     -2.02264    8.14456   13.84002
C     -1.69842    6.16608   18.37287
N     -2.24077    4.89408   18.54037
C     -3.62233    5.01314   18.50989
C     -3.93237    6.39336   18.29690
C     -2.73109    7.08261   18.19925
C     -0.35058    6.39233   17.95988
C     -0.12421    6.78541   16.64162
H     -0.96661    6.97845   15.98605
C      1.16830    6.91394   16.17125
H      1.32692    7.21677   15.14280
C      2.27238    6.67746   17.00321
C      2.02995    6.30934   18.33284
H      2.86458    6.10900   18.99741
C      0.72821    6.15800   18.80794
H      0.54817    5.84390   19.83070
C     -1.45900    3.65841   18.38342
C     -1.43357    2.63211   19.33387
H     -1.91678    2.78513   20.29351
C     -0.81632    1.41311   19.05480
H     -0.82158    0.62841   19.80534
C     -0.24094    1.17196   17.80108
C     -0.27199    2.20611   16.85495
H      0.16926    2.04752   15.87891
C     -0.84634    3.42643   17.14504
H     -0.86308    4.20133   16.38639
C     -4.57460    3.89884   18.35783
C     -4.41118    3.05726   17.25013
H     -3.54850    3.18996   16.60520
C     -5.35464    2.09837   16.93868
H     -5.21287    1.48008   16.06052
C     -6.48470    1.90334   17.74438
C     -6.63190    2.71471   18.87699
H     -7.50339    2.59530   19.51388
C     -5.70115    3.71126   19.16598
H     -5.85697    4.36267   20.02020
C     -5.24726    6.93613   17.92145
C     -5.83556    8.05685   18.51877
H     -5.34815    8.52230   19.36976
C     -7.02516    8.58955   18.02611
H     -7.45571    9.46593   18.50171
C     -7.64248    8.03886   16.89563
C     -7.05031    6.91352   16.30651
H     -7.51289    6.46070   15.43791
C     -5.89459    6.35930   16.82081
H     -5.46099    5.48738   16.34137
C     -2.50721    8.43878   17.68412
C     -1.68571    9.40112   18.28413
H     -1.20603    9.17987   19.23260
C     -1.47768   10.63892   17.67869
H     -0.83610   11.36905   18.16316
C     -2.05254   10.93576   16.43566
C     -2.86606    9.96298   15.83866
H     -3.33083   10.17006   14.88220
C     -3.10672    8.75270   16.45661
H     -3.74783    8.02255   15.97309
C     -4.91032   -1.12952   14.71795
C     -5.76171   -2.04794   14.07887
H     -5.92172   -1.98369   13.00808
C     -6.42237   -3.03088   14.79887
H     -7.10742   -3.71675   14.30896
C     -6.21387   -3.15323   16.17805
C     -5.32312   -2.28232   16.82045
H     -5.18468   -2.36009   17.89203
C     -4.69309   -1.29075   16.10116
H     -4.07146   -0.58461   16.63945
N     -6.99430   -4.08869   16.88078
N     -6.54392   -4.38589   18.02059
N     -8.71324   -5.20475   18.51003
C     -7.41207   -5.18181   18.80001
C     -6.86030   -5.86807   19.88276
H     -5.79847   -5.79451   20.08525
C     -7.71568   -6.64148   20.65641
H     -7.33211   -7.21057   21.49641
C     -9.07111   -6.67842   20.35239
H     -9.74057   -7.28062   20.95311
C     -9.54555   -5.92851   19.26738
N    -11.22060   -5.26521   17.69053
C    -10.97372   -5.87959   18.86333
C    -11.99663   -6.42229   19.64294
H    -11.78710   -6.89827   20.59294
C    -13.30736   -6.33408   19.19238
H    -14.11715   -6.74914   19.78270
C    -13.56145   -5.70295   17.98223
H    -14.56967   -5.61005   17.59515
C    -12.48337   -5.18377   17.27193
H    -12.64393   -4.67815   16.32109
C     -7.44819    0.86345   17.34007
C     -9.05003   -1.24952   16.42668
C     -7.99923   -0.05595   18.24512
H     -7.76541    0.02734   19.30185
C     -8.76373   -1.12205   17.79149
H     -9.13791   -1.87465   18.47922
C     -8.55525   -0.30180   15.51984
H     -8.76889   -0.41580   14.46378
C     -7.75184    0.72009   15.97375
H     -7.33096    1.41816   15.25748
N     -9.72621   -2.40458   15.99725
N    -10.28457   -2.29355   14.87242
N    -10.24600   -4.65584   14.77588
C    -10.77932   -3.51023   14.35184
C    -11.76350   -3.44684   13.36460
H    -12.14471   -2.48576   13.04062
C    -12.22840   -4.64771   12.84494
H    -13.00843   -4.65338   12.09121
C    -11.68418   -5.84663   13.29092
H    -12.04498   -6.78405   12.88726
C    -10.67262   -5.81440   14.25987
N     -9.21327   -6.82238   15.86769
C    -10.00858   -7.02769   14.80015
C    -10.18467   -8.29491   14.24217
H    -10.81259   -8.44268   13.37216
C     -9.52732   -9.37885   14.80949
H     -9.64981  -10.37222   14.39148
C     -8.71027   -9.16792   15.91201
H     -8.17778   -9.98553   16.38414
C     -8.58578   -7.87085   16.40019
H     -7.95113   -7.66556   17.26086
Li    -9.35135   -4.74028   16.61996
C      2.49402    1.52936   14.18660
C      3.01614    0.39996   13.53163
H      2.74198    0.19213   12.50336
C      3.87175   -0.47596   14.18315
H      4.24512   -1.36509   13.68364
C      4.27316   -0.21935   15.49927
C      3.80308    0.92894   16.14946
H      4.08886    1.11125   17.17825
C      2.92731    1.77461   15.50504
H      2.52773    2.61134   16.06513
N      5.06131   -1.18480   16.15516
N      5.67385   -0.74428   17.16471
N      5.92532   -3.00266   17.84207
C      6.32228   -1.73344   17.93707
C      7.31985   -1.30967   18.81614
H      7.58517   -0.26046   18.86744
C      7.94827   -2.27708   19.58936
H      8.74464   -2.00188   20.27243
C      7.54546   -3.60302   19.48891
H      8.03277   -4.35990   20.09011
C      6.50911   -3.93460   18.60512
N      5.13833   -5.48406   17.40081
C      5.98795   -5.31404   18.43175
C      6.34096   -6.36532   19.27953
H      7.00980   -6.21170   20.11745
C      5.80783   -7.62663   19.04766
H      6.06847   -8.45735   19.69453
C      4.93508   -7.80257   17.98241
H      4.49508   -8.76960   17.76742
C      4.63138   -6.69876   17.19153
H      3.94789   -6.79648   16.34965
C      0.38706   -0.10102   17.40192
C      1.75538   -2.34928   16.43220
C      1.27020   -0.80917   18.23002
H      1.45902   -0.45575   19.23887
C      1.97301   -1.90257   17.74138
H      2.70696   -2.41553   18.35591
C      0.82752   -1.68731   15.61615
H      0.67236   -2.03138   14.60055
C      0.17525   -0.57309   16.09342
H     -0.50461   -0.04002   15.43719
N      2.57577   -3.37847   15.93730
N      2.10627   -3.98153   14.93464
N      4.32439   -4.66851   14.49092
C      3.01809   -4.86462   14.31409
C      2.50234   -5.86495   13.48932
H      1.43089   -5.96499   13.36304
C      3.40940   -6.71347   12.86776
H      3.05892   -7.51994   12.23264
C      4.77295   -6.52142   13.05778
H      5.48103   -7.18145   12.57313
C      5.20314   -5.46881   13.87675
N      6.85104   -4.23994   15.10396
C      6.63072   -5.15982   14.14469
C      7.67712   -5.77076   13.45189
H      7.48536   -6.49713   12.67174
C      8.98553   -5.42626   13.76539
H      9.81353   -5.88885   13.23920
C      9.21280   -4.48008   14.75559
H     10.21790   -4.18118   15.03008
C      8.11142   -3.91631   15.39229
H      8.25023   -3.16883   16.17185
Li     4.98263   -3.67093   16.15001
C      3.62208    6.83609   16.42878
C      4.65965    7.48946   17.10943
H      4.49777    7.84261   18.12302
C      5.85734    7.77241   16.46721
H      6.63949    8.33736   16.96566
C      6.06208    7.35193   15.14785
C      5.05524    6.64243   14.47894
H      5.21647    6.33199   13.45348
C      3.85296    6.40821   15.10920
H      3.06295    5.90101   14.56473
N      7.23383    7.77705   14.49467
N      7.54233    7.09591   13.48087
N      8.83765    8.95609   12.80580
C      8.59178    7.64956   12.71211
C      9.27818    6.80451   11.83970
H      9.02001    5.75352   11.78728
C     10.29349    7.36253   11.07325
H     10.87138    6.74413   10.39489
C     10.56220    8.72238   11.17408
H     11.35226    9.16051   10.57767
C      9.79757    9.50338   12.05161
N      9.30335   11.51166   13.25619
C      9.98431   10.96558   12.23045
C     10.79975   11.72951   11.39409
H     11.32903   11.28080   10.56247
C     10.91846   13.09308   11.63029
H     11.54619   13.70561   10.99219
C     10.21806   13.65571   12.68876
H     10.28080   14.71571   12.90653
C      9.42373   12.82176   13.46962
H      8.85751   13.22690   14.30679
C      2.43110    9.24704   13.29419
C      4.79516   10.41657   14.27951
C      3.58725    9.32182   12.49766
H      3.57244    8.93390   11.48496
C      4.75948    9.87511   12.98854
H      5.66033    9.90309   12.38255
C      3.63632   10.39574   15.06800
H      3.67509   10.78688   16.07745
C      2.48617    9.81376   14.58369
H      1.62940    9.74510   15.24407
N      6.03149   10.87194   14.77035
N      5.93976   11.63874   15.76793
N      8.22361   11.15799   16.17739
C      7.17407   11.95634   16.37502
C      7.21444   13.07647   17.20683
H      6.32379   13.67693   17.34843
C      8.42541   13.38328   17.81325
H      8.51394   14.25562   18.45180
C      9.52610   12.56142   17.60202
H     10.47177   12.79837   18.07246
C      9.38614   11.43568   16.77913
N     10.23265    9.57481   15.53383
C     10.48809   10.48130   16.49657
C     11.70406   10.50949   17.18160
H     11.89023   11.23274   17.96600
C     12.68341    9.58031   16.85569
H     13.63533    9.58444   17.37565
C     12.42099    8.64722   15.86166
H     13.15660    7.90336   15.57793
C     11.17993    8.68634   15.23368
H     10.93637    7.96925   14.45137
Li     8.30969    9.97505   14.50873
C     -1.86917   12.21042   15.71826
C     -1.97040   13.45701   16.35334
H     -2.11679   13.50072   17.42804
C     -1.98362   14.62860   15.60934
H     -2.13177   15.59280   16.08658
C     -1.82622   14.57856   14.21892
C     -1.65810   13.34194   13.58055
H     -1.55138   13.31099   12.50278
C     -1.70117   12.18222   14.32158
H     -1.62338   11.22701   13.81239
N     -1.97338   15.77421   13.49455
N     -1.46315   15.75210   12.34200
N     -2.90038   17.55860   11.82901
C     -1.79504   16.87015   11.54426
C     -0.97755   17.15924   10.45096
H     -0.10333   16.55084   10.25221
C     -1.32421   18.24798    9.66169
H     -0.70935   18.52729    8.81285
C     -2.46947   18.97685    9.95999
H     -2.74155   19.82556    9.34542
C     -3.25259   18.59284   11.05653
N     -5.00729   18.91317   12.65264
C     -4.50279   19.28466   11.46039
C     -5.12305   20.24739   10.66234
H     -4.71654   20.52276    9.69693
C     -6.29125   20.84718   11.11481
H     -6.78989   21.59726   10.51044
C     -6.80944   20.46683   12.34536
H     -7.71955   20.90844   12.73477
C     -6.13056   19.49443   13.07326
H     -6.50873   19.16807   14.04079
C     -5.13868   11.68961   13.19529
C     -5.25699   14.36902   14.05423
C     -4.98006   12.74861   12.28418
H     -4.81236   12.53756   11.23359
C     -5.01551   14.06776   12.70802
H     -4.85810   14.88319   12.00800
C     -5.47764   13.32562   14.96451
H     -5.64090   13.55841   16.00979
C     -5.41209   12.01733   14.53876
H     -5.51092   11.23109   15.27831
N     -5.16984   15.71487   14.45222
N     -5.70023   15.95857   15.57044
N     -4.42837   17.95879   15.58727
C     -5.46458   17.26273   16.05645
C     -6.31110   17.73870   17.05917
H     -7.12440   17.11964   17.41869
C     -6.07450   19.01670   17.54751
H     -6.71714   19.43982   18.31207
C     -5.00288   19.75168   17.05466
H     -4.81565   20.74863   17.43271
C     -4.18163   19.18127   16.07263
N     -2.44993   19.26011   14.42119
C     -3.00188   19.86839   15.48850
C     -2.48862   21.05786   16.00822
H     -2.93073   21.52808   16.87787
C     -1.38128   21.63655   15.40206
H     -0.96688   22.56098   15.78965
C     -0.81374   21.01071   14.30033
H      0.05211   21.42710   13.79846
C     -1.38477   19.82389   13.85164
H     -0.96556   19.30195   12.99287
Li    -3.65357   17.53115   13.73633
C     -8.87625    8.56863   16.28764
C     -9.99589    8.94077   17.04664
H     -9.94460    8.90239   18.13023
C    -11.19382    9.26513   16.42539
H    -12.08388    9.48768   17.00652
C    -11.27492    9.29013   15.02757
C    -10.14404    8.98118   14.25862
H    -10.21963    8.98874   13.17786
C     -8.97603    8.60718   14.88457
H     -8.12190    8.31754   14.28065
N    -12.53537    9.50257   14.44324
N    -12.49621    9.88115   13.24113
N    -14.72604    9.11036   13.07267
C    -13.75411    9.88987   12.59848
C    -13.89601   10.67194   11.45138
H    -13.06423   11.26881   11.09660
C    -15.12984   10.65848   10.81428
H    -15.29731   11.26526    9.93089
C    -16.15114    9.85655   11.31068
H    -17.11365    9.84330   10.81552
C    -15.90929    9.07554   12.44853
N    -16.57954    7.65471   14.25479
C    -16.91776    8.17174   13.05806
C    -18.13080    7.86808   12.43759
H    -18.38242    8.27793   11.46717
C    -19.01939    7.01289   13.07635
H    -19.96727    6.76311   12.61197
C    -18.67148    6.48158   14.31105
H    -19.33448    5.80860   14.84256
C    -17.43981    6.83256   14.85513
H    -17.13052    6.43338   15.81982
C     -9.79407    5.20980   14.05366
C    -12.23829    6.00990   15.19683
C    -10.86088    5.64252   13.24701
H    -10.74590    5.67195   12.16875
C    -12.05793    6.05757   13.80871
H    -12.86786    6.42844   13.18726
C    -11.20685    5.51911   16.00982
H    -11.33912    5.50674   17.08495
C    -10.01133    5.13398   15.44428
H     -9.20391    4.83503   16.10299
N    -13.41793    6.56407   15.72368
N    -13.66494    6.22657   16.91375
N    -15.11589    8.09768   16.99330
C    -14.74150    6.92410   17.50373
C    -15.32790    6.36654   18.64098
H    -14.96838    5.41983   19.02625
C    -16.37797    7.05999   19.22806
H    -16.88077    6.65797   20.10110
C    -16.78012    8.27851   18.69394
H    -17.59904    8.82113   19.14862
C    -16.11096    8.78143   17.56978
N    -15.83677   10.30637   15.74497
C    -16.44325   10.07752   16.92537
C    -17.31526   11.00372   17.50016
H    -17.78250   10.81527   18.45889
C    -17.57222   12.19337   16.83108
H    -18.24654   12.92679   17.25993
C    -16.94903   12.42792   15.61282
H    -17.11998   13.34370   15.05870
C    -16.08909   11.45363   15.11539
H    -15.57928   11.60379   14.16495
Li   -14.70296    8.53065   15.03615
