425
Coordinates from ORCA-job ORCA
  C   -3.60138137799383      6.32814804874521     12.35798785793116
  C   -4.30672721536776      5.09015658954531     12.51014988887892
  C   -3.35698044460445      4.07194006108492     12.58941752856504
  N   -2.09661244915541      4.65726245118857     12.47250469428198
  C   -2.23820499762232      6.03878120260046     12.34830311164567
  C   -4.16615258856156      7.68469170622427     12.39910035549048
  C   -3.71331713502435      8.71176998269156     11.56012135973536
  H   -3.00435526062757      8.48083448907302     10.77156013296570
  C   -4.10479715006671     10.02869589310875     11.76468785065991
  H   -3.67315678599072     10.80341339819025     11.13963183735216
  C   -4.98432601123392     10.37683123760639     12.80256049063582
  C   -5.50898023960337      9.32831979864762     13.57700292527744
  H   -6.21262934396852      9.54332395840061     14.37413688758816
  C   -5.10386218935500      8.01928662192400     13.38752655850568
  H   -5.48322534195899      7.24837198190954     14.04880362479366
  C   -5.75524530367669      4.96530600633958     12.73392125996103
  C   -6.68379908683272      5.68999506148524     11.97397203404816
  H   -6.33801910513420      6.26909733960752     11.12399124304659
  C   -8.02535189314812      5.73671836042723     12.33170444010952
  H   -8.69452898956443      6.37145049873012     11.76017853734878
  C   -8.50605935550720      5.04515491849836     13.45475559529961
  C   -7.58788278646286      4.24261094437275     14.15308226806297
  H   -7.91939525301855      3.66794238274220     15.01126972721407
  C   -6.24755765233158      4.21491150282492     13.81247253403791
  H   -5.56031094267460      3.63726924472846     14.42092861866332
  C   -3.59061930320102      2.66937459110730     12.94187895415751
  C   -4.63374127940869      1.94667390332705     12.34334351791393
  H   -5.17266602322937      2.38630944136864     11.51077050438086
  C   -5.03308972352857      0.71450151225905     12.84254973497967
  H   -5.89100044731337      0.22743269119769     12.39151804113196
  C   -4.39566908330734      0.13043529779452     13.94975120730641
  C   -3.29122729417370      0.81737005696563     14.48209974271666
  H   -2.74983080442208      0.40269096346813     15.32497075498631
  C   -2.90631879742117      2.05585860326516     14.00327415989889
  H   -2.09171541525517      2.57337729037210     14.49547277820447
  C   -0.87891552784564      3.98607426175026     12.78535790568620
  C   -0.51915910582796      2.79677265269735     12.15488548903139
  H   -1.12620827583822      2.41008391408781     11.34350509555262
  C   0.57368396954823      2.06983646960628     12.61684359006308
  H   0.78377773287338      1.11289984954253     12.15259006765929
  C   1.35869324305854      2.52008459413758     13.69180295328655
  C   1.02441202465773      3.76881408667244     14.24438387700636
  H   1.59880639525046      4.18325596101652     15.06412509400496
  C   -0.08003404668643      4.47916617863648     13.81665940887719
  H   -0.34118044709841      5.40986154607552     14.30535778407198
  C   -1.09081701456587      6.94804385658817     12.39592529117967
  C   0.10268512671920      6.71620276618816     11.69717180297530
  H   0.16281230397683      5.89200295860818     10.99383351363497
  C   1.23180309430123      7.48907206688626     11.93650533402110
  H   2.15371846118307      7.23004686913571     11.42671364792583
  C   1.21844697370001      8.53991604106232     12.86859294951521
  C   -0.00883345694229      8.82422736508425     13.49318806323481
  H   -0.08440302507705      9.64264185419927     14.20141475189601
  C   -1.12837510944624      8.04444944770192     13.27206142331225
  H   -2.03641026613866      8.25497405696896     13.82491098170552
  C   -1.70440109017544      6.14463169489361     18.29636608274928
  N   -2.27909298663038      4.90033905347546     18.54362570192754
  C   -3.66488359927036      5.02190503859712     18.50909670535835
  C   -3.96977320942178      6.35785102426039     18.29181635647652
  C   -2.73411191891268      7.06640668765554     18.15952898886915
  C   -0.29585555948243      6.29477147192355     17.91345852966738
  C   -0.04060546955490      6.84748755982442     16.65020284696097
  H   -0.86896482999938      7.21037037536193     16.04981782310897
  C   1.24252295952705      6.90304000447166     16.14447132300742
  H   1.40434786026414      7.30939062067087     15.15326869415681
  C   2.33988479412911      6.45609777306449     16.89324765103992
  C   2.09469206829406      5.93983376668525     18.17274246600416
  H   2.92379051773257      5.58145697888876     18.77591761036079
  C   0.79520826351400      5.84165761587639     18.66663286781339
  H   0.62534144581927      5.40605107052378     19.64631595246386
  C   -1.59907477738525      3.65904841725103     18.35102355733274
  C   -1.51972438354776      2.69000954334358     19.34665635606833
  H   -1.95420921005310      2.88421892675416     20.32168698325304
  C   -0.89414554950390      1.47204185970058     19.08052447483444
  H   -0.84944987582657      0.71722620013435     19.85939588934112
  C   -0.35977952890483      1.19950575570366     17.81460126634444
  C   -0.45662363859559      2.19300036729033     16.83003585702776
  H   -0.03386599266258      2.01631166844476     15.84892994077773
  C   -1.05467498132139      3.40806862129671     17.09433416448541
  H   -1.11392117946036      4.16886256718552     16.32399131622250
  C   -4.56663447492789      3.86866085282916     18.36287879059223
  C   -4.44511072842151      3.08541722794748     17.20688420784685
  H   -3.63487022186536      3.27501781793668     16.51133015912079
  C   -5.37722815518797      2.11304637880160     16.90729523299091
  H   -5.26946591999240      1.54021250726236     15.99401337119173
  C   -6.45644761894142      1.85223956863022     17.76366762183552
  C   -6.55925862926056      2.60532673997169     18.93993129182104
  H   -7.39126229670432      2.43548467170285     19.61667350204626
  C   -5.63663794684947      3.61060071729037     19.22594652089364
  H   -5.75716671372243      4.21688446806988     20.11794426027974
  C   -5.29451326639423      6.89097583593859     17.92959711880631
  C   -5.88841018812199      7.99345751748948     18.55464610322369
  H   -5.40189921864696      8.44266726820474     19.41487219799385
  C   -7.08237075287875      8.53035417557057     18.07786795109149
  H   -7.51739169912506      9.39203472239566     18.57559993726907
  C   -7.69711892569814      8.00575468964723     16.93342273075973
  C   -7.09638775683900      6.90282357063286     16.31234414644441
  H   -7.55480460524833      6.47251548258540     15.43012230425894
  C   -5.93504442208006      6.34435988804757     16.81044686749848
  H   -5.49251883119807      5.49309500547945     16.30300445524040
  C   -2.57908933734964      8.43999926175186     17.65575989907020
  C   -1.78339972013891      9.41647480987071     18.26613847493640
  H   -1.30226761081684      9.19272661436350     19.21321170083282
  C   -1.59337147852018     10.66178425066398     17.67012406700919
  H   -0.96516260626127     11.39936986960679     18.16097044008314
  C   -2.16387008374667     10.95376198179240     16.42444532995512
  C   -2.96135905214489      9.97155808427040     15.82080280029363
  H   -3.42625859139175     10.17773954816682     14.86415957015906
  C   -3.18461566764729      8.75336053641474     16.43160394861808
  H   -3.81186823285513      8.01582688003796     15.94077222913255
  C   -4.93319966551932     -1.06714062348123     14.62181403663731
  C   -5.78437719188067     -1.98203615630531     13.97707107621403
  H   -5.96516132402967     -1.89565658429962     12.91122185020778
  C   -6.41768553878605     -2.99135343866973     14.68523996387454
  H   -7.10246320521779     -3.67473778668452     14.19149931224192
  C   -6.17898206310617     -3.14613655353814     16.05625212083094
  C   -5.28976720464998     -2.27690831829391     16.70299605333719
  H   -5.12994123658837     -2.37875063135398     17.76958927517415
  C   -4.69021191244088     -1.25735366073169     15.99721874805737
  H   -4.07072813363649     -0.55466510418894     16.54246858148809
  N   -6.93106347172842     -4.10995972210430     16.75140950036914
  N   -6.45055500595719     -4.43116992295490     17.87236832401248
  N   -8.60060855995583     -5.27863787599525     18.39504107051030
  C   -7.29254180897802     -5.25443044556789     18.65213641435590
  C   -6.70910839117652     -5.96402543940811     19.70275056316765
  H   -5.64290420760452     -5.88877527724079     19.88004428062814
  C   -7.53970605474856     -6.76240418732500     20.47810020361853
  H   -7.13120472062780     -7.35015726316793     21.29312366502342
  C   -8.90233025380561     -6.80058904507250     20.20805622497921
  H   -9.55284273412246     -7.42235041103473     20.80966957746837
  C   -9.40887042688786     -6.02676837123533     19.15478627959721
  N   -11.12606955346259     -5.34452286441613     17.63259785076344
  C   -10.84697530009174     -5.97799356069599     18.78790445281140
  C   -11.84724575111340     -6.53943269221586     19.58342762825994
  H   -11.61139030504374     -7.03005700873303     20.51973573823219
  C   -13.16932560627067     -6.45036565433171     19.16738641826815
  H   -13.96211211133385     -6.87952811391134     19.77056348543654
  C   -13.45664838520624     -5.80018023100916     17.97481376746682
  H   -14.47465078204629     -5.70633701578790     17.61449654695219
  C   -12.39930350678042     -5.26307145013700     17.24693836775216
  H   -12.58622837624903     -4.74238546619113     16.30910454527124
  C   -7.42086699809517      0.81340626737603     17.35889074283683
  C   -9.02569199970132     -1.28783289427852     16.42564191818515
  C   -7.92214490172050     -0.14867858358430     18.24791309822407
  H   -7.64759366333042     -0.10389928685325     19.29714612938973
  C   -8.69049243824944     -1.20711685481821     17.78270330791174
  H   -9.02762817980348     -1.99114727556927     18.45427778587930
  C   -8.58207635471252     -0.29725053399233     15.53832755809397
  H   -8.83518021127990     -0.37326234871165     14.48758305777566
  C   -7.77922354656580      0.72088993129006     16.00150315133592
  H   -7.40137165724889      1.45607881491610     15.29851796868263
  N   -9.69700420826417     -2.43974198859216     15.97864516745198
  N   -10.28753915177555     -2.30364085952069     14.87341769116983
  N   -10.22229125866692     -4.66166881331765     14.71085340069176
  C   -10.77941670841236     -3.51204384135631     14.33055542868574
  C   -11.78727674707060     -3.43462802051889     13.36872590214832
  H   -12.18776531278498     -2.47033074277060     13.07940948471176
  C   -12.25037081827867     -4.62738774116027     12.82853273243009
  H   -13.04805730796669     -4.62289918308002     12.09351203125443
  C   -11.68223752709292     -5.83080529979638     13.23024778046326
  H   -12.04247460791438     -6.76191887696020     12.81169985681833
  C   -10.64794124193501     -5.81160222008380     14.17548376466737
  N   -9.14553468577867     -6.84364082190156     15.72714621949848
  C   -9.95795499111374     -7.03022617412188     14.66903270499084
  C   -10.12789737900214     -8.28359736180471     14.07894820921356
  H   -10.76921055881544     -8.41529356557511     13.21608056972954
  C   -9.44646687144559     -9.37400596995598     14.60400284200946
  H   -9.56357838907111    -10.35695186670961     14.16060014346744
  C   -8.61253869917290     -9.18279132375436     15.69745872722818
  H   -8.06147977053234    -10.00610088019631     16.13729666751355
  C   -8.49534891935016     -7.89810648592022     16.21910901755191
  H   -7.84795414282597     -7.70833147976830     17.07381152712702
  Li  -9.28859080114518     -4.77988323475950     16.53070611176628
  C   2.40905458962239      1.68770076639200     14.31474916520115
  C   2.97263822606729      0.56854319396768     13.67678680889546
  H   2.72418623770408      0.34816778553657     12.64467143834174
  C   3.84045355568072     -0.28002089197237     14.34809641250113
  H   4.24782458324121     -1.16021530527586     13.85943816028357
  C   4.21300069576212     -0.00427526915509     15.66868263918537
  C   3.69546840898732      1.13149634745101     16.30534427099726
  H   3.95893370051300      1.32788360224593     17.33747815156849
  C   2.80673719041200      1.94815852058798     15.64173342504276
  H   2.37408833344434      2.77633329704068     16.19039693234177
  N   5.02700202215547     -0.93767037592147     16.33937822656165
  N   5.60842304115679     -0.46963936632452     17.35510079416546
  N   5.94477841283890     -2.71285031232742     18.04975426872547
  C   6.28666491506044     -1.42721610836196     18.14101927506700
  C   7.25356101145209     -0.95607007634523     19.03047468164175
  H   7.47351359040216      0.10377653013885     19.07774728848754
  C   7.91154232294381     -1.89060544802626     19.81912731370143
  H   8.68644766436717     -1.57741073812498     20.51047420035060
  C   7.56545927928982     -3.23281325524390     19.72376936801923
  H   8.07572966450975     -3.96444022517735     20.33712494417828
  C   6.55609046857846     -3.61373810797592     18.82897863044225
  N   5.27494803726865     -5.23083746059278     17.61540601986631
  C   6.09498737385084     -5.01503110973138     18.66151856789229
  C   6.47161452776477     -6.04132473766628     19.52955068822068
  H   7.11537905156747     -5.85119504255276     20.37956296376313
  C   5.99419762651017     -7.32564867365765     19.30228720407348
  H   6.27375080324078     -8.13764027815334     19.96486197930527
  C   5.15212345929329     -7.54884138605474     18.22128369369306
  H   4.75575434101313     -8.53519870792461     18.00925045170828
  C   4.82159735456946     -6.46739188839661     17.41052873584708
  H   4.16072754117567     -6.60254103065481     16.55584683743530
  C   0.31303141695471     -0.06190350780329     17.45185059406413
  C   1.78244405817630     -2.27239241550219     16.54869934015876
  C   1.22397072143731     -0.70640706060508     18.30127018607067
  H   1.39846427813309     -0.31484625737964     19.29851872056934
  C   1.97364455589396     -1.78272866552169     17.84624026028692
  H   2.72849266534523     -2.24452464132111     18.47580791831539
  C   0.82712021392448     -1.67766750944828     15.71340084769046
  H   0.69195993138678     -2.05528540298158     14.70692967996694
  C   0.12174431278269     -0.58256347895362     16.15910966348304
  H   -0.58128334153230     -0.10082030950026     15.48776211423692
  N   2.65981104017408     -3.26790514832815     16.08168667807157
  N   2.23514930123814     -3.91180996111541     15.08521029568608
  N   4.49235372556203     -4.48674907228106     14.68365552600699
  C   3.20127275786512     -4.75578428692901     14.49203686196743
  C   2.75106272845051     -5.79615497942688     13.67893180462858
  H   1.68842411694973     -5.95470803432219     13.53888891156944
  C   3.71085914171947     -6.60779400769930     13.08743738155282
  H   3.41284783369303     -7.44332428102581     12.46321712789550
  C   5.05918030197494     -6.34168960817238     13.29534841899490
  H   5.80905606441072     -6.97409433392214     12.83750953175964
  C   5.42085403008720     -5.25225232021986     14.09948047633599
  N   6.98349287455058     -3.92870536373711     15.33928730499411
  C   6.82606835487256     -4.86701649244169     14.38547858619889
  C   7.91312143959371     -5.42917943976151     13.71433182282702
  H   7.77089517291004     -6.16984077125923     12.93694674817223
  C   9.19714929468805     -5.01586472069814     14.04528677027304
  H   10.05596772291685     -5.43981799620913     13.53619353988118
  C   9.35989929599246     -4.05155943520579     15.03065884133152
  H   10.34396722523877     -3.69998583631684     15.31867378044182
  C   8.22115551395848     -3.53895181097435     15.64451632533569
  H   8.30935950132471     -2.77881404496709     16.41911103487983
  Li  5.07061551635234     -3.43722217595033     16.34421428011803
  C   3.67697956549997      6.56987531433944     16.28177858435038
  C   4.77951652694407      7.09828562063293     16.96955457157425
  H   4.67851007494306      7.36773535151979     18.01626338778950
  C   5.96365782134653      7.37186854111549     16.29913950915787
  H   6.79660255895215      7.84927950846417     16.80666887438358
  C   6.08987247151826      7.05598254369189     14.94071160949830
  C   5.01726809009851      6.46277047061831     14.26059006591027
  H   5.11918179763856      6.23477751412118     13.20628710553771
  C   3.82779291086202      6.24770405385992     14.92058811675155
  H   2.98489518279647      5.84065477185673     14.37112982709694
  N   7.25254230066805      7.47568984894893     14.27106886199395
  N   7.48564264997955      6.86571823600316     13.19268956501079
  N   8.82111668416603      8.72485281940521     12.60414064866127
  C   8.52400746122085      7.43813377446518     12.42346418481910
  C   9.14449828121795      6.64046061714705     11.46135941248422
  H   8.84649924658075      5.60583777769570     11.33998642561802
  C   10.14884966579326      7.22169464061580     10.69801253646620
  H   10.67663600302990      6.63831483032437      9.95120739723014
  C   10.47197077254411      8.55993701710421     10.89041163351971
  H   11.25409966301144      9.01555102489078     10.29660467522613
  C   9.77098825570704      9.29615862545307     11.85501196835347
  N   9.39608582312326     11.21992449975480     13.22893172933776
  C   10.01726973007103     10.73296038285389     12.13739655251803
  C   10.82729649380861     11.53226490199467     11.32937797208851
  H   11.30748406244836     11.13246096569276     10.44465996596583
  C   11.00443585842233     12.86858797135367     11.66416804132752
  H   11.62917737298723     13.50772187050245     11.04964437247672
  C   10.36573540901618     13.37017966857842     12.79020265121288
  H   10.47502688230224     14.40732508845753     13.08576713486297
  C   9.57189667666302     12.50477371778799     13.53670000682761
  H   9.05279038534036     12.86222499128686     14.42458129627578
  C   2.45673708883744      9.21933270468542     13.29161839537098
  C   4.88691862282178     10.21846369678154     14.30464856502176
  C   3.61205146811477      9.25827496005161     12.49142427876230
  H   3.57329703779108      8.90247602779579     11.46759926669656
  C   4.81421640826582      9.73013336324567     12.99416038661930
  H   5.71337484596898      9.72855247824854     12.38484740562970
  C   3.72918792499439     10.24385277627617     15.09520746127335
  H   3.79080584347749     10.60232571430983     16.11556778009206
  C   2.54474628519825      9.75001401730253     14.59481834241682
  H   1.68457725673909      9.71748955227785     15.25359911667980
  N   6.15320861172527     10.57607972408581     14.80092127724426
  N   6.11952618689371     11.27538704721988     15.85021574579975
  N   8.39368829291963     10.67752528928959     16.15613252320573
  C   7.38044514342759     11.49445255708743     16.44626771722260
  C   7.48546264271925     12.54197091400759     17.36286495034108
  H   6.62245016784314     13.16094983343736     17.57722596515037
  C   8.72235123184371     12.75520096730365     17.95668389560140
  H   8.86000719019370     13.56941466151375     18.66003701955763
  C   9.78570526827157     11.91534011039694     17.64805019860109
  H   10.75190889160695     12.08034410610579     18.10734540798681
  C   9.58186085191921     10.86571651852832     16.74194648035191
  N   10.32637615929377      9.08520351814800     15.32476529659294
  C   10.64141573356178      9.90229676846131     16.34797169990622
  C   11.87896989432863      9.83788513685986     16.99095371784421
  H   12.11398862368808     10.48961999426575     17.82332721995813
  C   12.81671922272564      8.90963174940607     16.55764375623362
  H   13.78462880749778      8.84362287723809     17.04276036820661
  C   12.49255854300877      8.06910088765925     15.50122719092139
  H   13.19449699386908      7.32987046988050     15.13275715801183
  C   11.23405731226092      8.19618394163344     14.92182534023855
  H   10.94285558490054      7.55206445791846     14.09348958500364
  Li  8.39065004526350      9.62384107895603     14.39953927362680
  C   -1.98570911677455     12.23121787118003     15.71119516182025
  C   -2.09213815750634     13.47595588934678     16.34935762940646
  H   -2.24508009091622     13.51578385178001     17.42327653399499
  C   -2.09933733266296     14.65008533334956     15.60949252611880
  H   -2.24902574054628     15.61307656598489     16.08877589502618
  C   -1.93227628027830     14.60505417479451     14.21988925342062
  C   -1.76039004756583     13.37021683877439     13.57850133725553
  H   -1.64466435074860     13.34343612116666     12.50154467076958
  C   -1.80699429316400     12.20806582988886     14.31549696704901
  H   -1.72123001058575     11.25418273997561     13.80469385225760
  N   -2.06819518371583     15.80501154248696     13.50089734535711
  N   -1.55752968926409     15.78351313639785     12.34829522668731
  N   -2.97161792766029     17.61086781620749     11.84216172931558
  C   -1.87430763861512     16.90985356399717     11.55656050811587
  C   -1.05039366021003     17.19476315701139     10.46676395545412
  H   -0.18339204360059     16.57641804518316     10.26706162043312
  C   -1.38072269801577     18.29212697332719      9.68269940508798
  H   -0.75966913993569     18.56838347353084      8.83735644626618
  C   -2.51748738119874     19.03389637665583      9.98190941719753
  H   -2.77682268369638     19.88982807697188      9.37187173575206
  C   -3.30832463948893     18.65368095908252     11.07395311056009
  N   -5.06051776293841     18.99287087501232     12.66894982464553
  C   -4.55081344230045     19.35940288490312     11.47746407363935
  C   -5.15962803645832     20.32952701214913     10.67945717786946
  H   -4.74933358503144     20.60034801640574      9.71434690405317
  C   -6.32117161396783     20.94237685209759     11.13146471342588
  H   -6.81086680042036     21.69838295408521     10.52715746118276
  C   -6.84447800153012     20.56734430193405     12.36153726476728
  H   -7.74965697114082     21.01920031675711     12.75070376870710
  C   -6.17734732573056     19.58671003259314     13.08919240901440
  H   -6.55986787717698     19.26402647179091     14.05625750205793
  C   -5.22879191850702     11.78278716460103     13.17279153738759
  C   -5.35877356187408     14.45679492477959     14.04147669562916
  C   -5.07656034703019     12.84512945489388     12.26475857369245
  H   -4.90764376967460     12.63789991603545     11.21353460178629
  C   -5.11708323304154     14.16240343262481     12.69374266546989
  H   -4.96202341126494     14.98138078179943     11.99738946233208
  C   -5.57537745313562     13.40947780399776     14.94805196234149
  H   -5.73643420196310     13.63781973670809     15.99466260965125
  C   -5.50296247418564     12.10307409447385     14.51755074969025
  H   -5.59322274586493     11.31301223475593     15.25422053260514
  N   -5.26802453857566     15.79991334108894     14.44685097154414
  N   -5.80031058616530     16.04098025860491     15.56466471015692
  N   -4.50264530698491     18.02241500594242     15.60001736970139
  C   -5.55284064430332     17.34037056056193     16.05800449566939
  C   -6.40077699052493     17.82568006605572     17.05492811834752
  H   -7.22601800341648     17.21782984019804     17.40628639384139
  C   -6.14969897329741     19.09907266358522     17.54830391980688
  H   -6.79266502374548     19.52951366251095     18.30851147099393
  C   -5.06368067667762     19.82012984920639     17.06617130203956
  H   -4.86540538343790     20.81363682925336     17.44775672340692
  C   -4.24247615492596     19.24015953618379     16.08982689006177
  N   -2.50251954441994     19.29978013213889     14.44667483540836
  C   -3.04873476464629     19.91092832260538     15.51536291231824
  C   -2.51817311914037     21.08850700464559     16.04446213995260
  H   -2.95609153636185     21.56010130561897     16.91553459075338
  C   -1.39887489288156     21.65238088347334     15.44627544302078
  H   -0.97051288677948     22.56724653727318     15.84130280901326
  C   -0.83743420741295     21.02400220103588     14.34284210707899
  H   0.03722784122119     21.42900799106673     13.84696597229069
  C   -1.42601813366955     19.84937111816583     13.88463058046387
  H   -1.01209750961219     19.32566597402342     13.02435093125676
  Li  -3.72603781598533     17.59053325594128     13.74975190261364
  C   -8.93282670954151      8.54740989004665     16.33923758566539
  C   -10.05235600105972      8.90025880951066     17.10760123218043
  H   -10.00107476374087      8.83405713326110     18.18983390269670
  C   -11.24973075765657      9.24363885564727     16.49510298106123
  H   -12.13893678459936      9.45374349759652     17.08210561806017
  C   -11.32997696863534      9.30774645012603     15.09858288822636
  C   -10.20015121673230      9.01527960567627     14.32190720157816
  H   -10.27535967767258      9.05156125549099     13.24171775617097
  C   -9.03316402637637      8.62181701787867     14.93789997034455
  H   -8.18005419859274      8.34602776244528     14.32628108689744
  N   -12.58834056925559      9.54581280626416     14.51839058449917
  N   -12.54270007637076      9.96554123809038     13.33045262636500
  N   -14.77491496332026      9.21104426835348     13.12256499191790
  C   -13.79791105677069     10.00463033839832     12.68338472214671
  C   -13.93124601056864     10.83143904233223     11.56710141409894
  H   -13.09535157161233     11.43789968742519     11.23928498216537
  C   -15.16253359034167     10.84895319086611     10.92513479022115
  H   -15.32373121513933     11.49116112133847     10.06594998678371
  C   -16.18922939403633     10.03239888421155     11.38512673679731
  H   -17.15002941266044     10.04340867825453     10.88649985536160
  C   -15.95538845013060      9.20554862078285     12.49178777375031
  N   -16.64380234301985      7.72233567584562     14.24011917635050
  C   -16.96988970617781      8.28148389406497     13.05911999270839
  C   -18.17615731246513      7.99972722509763     12.41572654315353
  H   -18.41718896245956      8.44270194750290     11.45719152062797
  C   -19.07126491849874      7.12301017237380     13.01488656300491
  H   -20.01405890613636      6.88953999684268     12.53204676802374
  C   -18.73640988844985      6.54904186446298     14.23399069427519
  H   -19.40492755374408      5.85827372416702     14.73490037041517
  C   -17.51028597045062      6.88014457748445     14.80256690434525
  H   -17.21082738187875      6.44777763266321     15.75597646123208
  C   -9.86254261437599      5.27158152691714     13.98609156985541
  C   -12.31233903439188      6.03503033226247     15.14189716632796
  C   -10.92841588435536      5.72103204309225     13.18735332602412
  H   -10.81089290297025      5.77687673634700     12.11040168667435
  C   -12.12829814410091      6.11893758865614     13.75605257617496
  H   -12.93789248952333      6.50230065882993     13.14180093762972
  C   -11.28048224120395      5.53087574938635     15.94571860438795
  H   -11.41469455559938      5.49432696925562     17.02003788981939
  C   -10.08203582700757      5.16486410025665     15.37412742208351
  H   -9.27386987647576      4.85722635296556     16.02770004471577
  N   -13.49584997264858      6.56821675558732     15.68187085184676
  N   -13.74906498537087      6.18476740747361     16.85660516536296
  N   -15.19500690341102      8.05444534012295     17.00312830784546
  C   -14.82826158883512      6.85987543094674     17.46763893640715
  C   -15.42459292354460      6.25848884106685     18.57700544176575
  H   -15.07136034802735      5.29554632875238     18.92611449580938
  C   -16.47644776543670      6.93168798675636     19.18426008832274
  H   -16.98674764965165      6.49646480132136     20.03676706031821
  C   -16.87096614507312      8.17227816639958     18.69724570017716
  H   -17.69128075496162      8.69881133500477     19.16813149801874
  C   -16.19228095879465      8.71782874167626     17.59912222547485
  N   -15.90035211707860     10.31116866104495     15.83684640646715
  C   -16.51531129207630     10.03940553815046     17.00372848197967
  C   -17.38749553721249     10.94607520382769     17.60854355968820
  H   -17.86130913537797     10.72200311735711     18.55634822198092
  C   -17.63550538617430     12.16188087983612     16.98453718763769
  H   -18.30964318530564     12.88096636909090     17.43728819654200
  C   -17.00362809464168     12.44077639800439     15.78014867044071
  H   -17.16757223978899     13.37800789178706     15.26085037092107
  C   -16.14433887574424     11.48294765867999     15.25060802182232
  H   -15.62824366491294     11.66777457192243     14.30971231026783
  Li  -14.77011423132435      8.56260593218148     15.06525306600257
