425
Coordinates from ORCA-job ORCA
  C   -3.53593259036613     -2.26913819839622      3.12768852172897
  C   -4.33479472196685     -3.28326236565952      3.64775904860209
  N   -2.20905144930308     -2.65518590959241      3.28303523520219
  C   -2.15778990540821     -3.89579299797033      3.90953190483519
  C   -3.46714620812953     -4.30920196335664      4.13795190067589
  C   -4.53000267636485      1.65524747101038      1.71455121746731
  C   -3.62945852569235      0.84791754268251      1.00359949043563
  C   -5.16178089676781      1.09843490074881      2.83873227983560
  C   -4.85712711107614     -0.18030476823407      3.27154254081542
  C   -3.33608578942950     -0.43917802424480      1.42449981456616
  C   -3.91770611534327     -0.96625239416649      2.58694844210397
  C   0.05298149589264     -3.82323174828884      5.07436090496100
  C   -0.92235571244498     -4.53466655835029      4.35960508053354
  C   1.14806242361490     -4.47157597580288      5.61758875781518
  C   1.31012708156019     -5.86012512114194      5.49106520164882
  C   -0.73274781478980     -5.91277804945757      4.17903228400603
  C   0.35449209928586     -6.56233013536594      4.74075640886570
  C   -3.89599427622934     -5.51807509906321      4.85008387962181
  C   -3.29547993091267     -5.89630735864651      6.05909180246213
  C   -4.97424302557997     -6.28393584453086      4.38428894881956
  C   -5.47683702582783     -7.33819916043305      5.13004588774007
  C   -3.78401690668571     -6.96369654358007      6.79323327491977
  C   -4.90946720308928     -7.68511609466259      6.36500845328889
  C   -6.59330861012584     -2.79175914270052      2.68971380526536
  C   -7.95777440885407     -2.60821090226632      2.84548287220661
  C   -5.79616069850677     -3.22642823218305      3.75776262922049
  C   -6.43187924146111     -3.54419076802486      4.96660778181268
  C   -8.58766286105130     -2.87209914272197      4.07104377324653
  C   -7.79839890326388     -3.37779461811872      5.11625443045444
  C   0.14202811822806      0.20621815360481      3.28588154604828
  C   -1.00628847227542     -0.54327107585935      3.47974734086900
  C   1.26301886057332     -0.33398223760139      2.63659001933515
  C   1.16281402142790     -1.63611596276884      2.12609436301616
  C   -1.07066543908421     -1.85161993632568      2.99970729943193
  C   0.00574163141878     -2.38373258648538      2.29066090352299
  H   -3.17293517529087      1.22361333430464      0.09376168826191
  H   -5.85567362607866      1.69557150972227      3.42260530788921
  H   -5.32467232984990     -0.56903691973408      4.17094332634881
  H   -2.64409359271606     -1.04449921953206      0.84834236215723
  H   -0.06835122264011     -2.75764784015532      5.24014420893430
  H   1.85874593293871     -3.89545793382969      6.20222804890877
  H   -1.45783998030373     -6.47597933008705      3.60121150424483
  H   0.47836521958637     -7.62719086933148      4.57334171213913
  H   -2.45783199206138     -5.32176480606996      6.44134151492905
  H   -5.43000192471865     -6.03510186246847      3.43168052269069
  H   -6.30969908340664     -7.91428708795175      4.74012552498023
  H   -3.32366985527101     -7.19985727120183      7.74778815450117
  H   -6.12983034824638     -2.58709010087317      1.73024834918599
  H   -8.54850231532518     -2.27856707545894      1.99700718408128
  H   -5.84038782096910     -3.89308263524703      5.80716100648154
  H   -8.24846429679585     -3.58701068061787      6.08193895097893
  H   0.18469009779628      1.20884068581826      3.70002525045037
  H   -1.84837327025715     -0.12178742960477      4.01879038948675
  H   1.99167992901357     -2.06176598222397      1.57035990472636
  H   -0.06005409836820     -3.38802028310182      1.88705505391476
  C   -18.88684865881833     -0.18026875445173      2.01277043451266
  C   -18.23241500377994     -1.32012232909046      2.46211729601641
  C   -18.28093521447979      1.05685643136151      2.18698066332887
  C   -17.03243807838594      1.11879869400077      2.80973909000249
  N   -16.40785398124704      0.01586348267575      3.26237688971530
  C   -16.99805139515606     -1.16611974999700      3.08441379566980
  C   -16.29983785788345      2.39444610411150      3.02012735515895
  C   -16.73976264048630      3.63196218108102      2.52982850598630
  C   -15.96166503049127      4.75996623275512      2.75471933405482
  C   -14.41971336396028      3.37518710033469      3.92902231342089
  N   -15.16027013364705      2.28890705031232      3.70935012694723
  N   -13.20737435335897      3.26945155268956      4.64392762028155
  N   -13.03723985700041      2.15724816305946      5.21517478356594
  C   -11.78114189217709      1.98924589835561      5.82284634003834
  C   -11.60675644920110      0.81426993285717      6.56337548746973
  C   -10.69849780177814      2.86952187517118      5.65352153934352
  C   -9.46225175183241      2.53880245044583      6.17119079755656
  C   -10.36010040758486      0.48165080566255      7.06167848381951
  C   -9.25824044074915      1.32292091796650      6.85026597993247
  C   -14.76948739919128      4.64054157894385      3.45637797030017
  H   -19.85510612613827     -0.25121525790698      1.52892964726364
  H   -18.66477281147357     -2.30606732356190      2.33583311036494
  H   -18.78233886265652      1.95249030138318      1.84187234737666
  H   -16.45675815335763     -2.03421003429530      3.45719970156341
  H   -17.66007414209306      3.71816834411358      1.96688148196803
  H   -16.28173315340319      5.72457313344598      2.37561435797921
  H   -12.46348364188907      0.17111721881346      6.72894216029119
  H   -10.83953027857606      3.78091213377584      5.08517361506064
  H   -8.61572672687091      3.19825314088424      6.00601342017348
  H   -10.23131830085210     -0.43609001412163      7.62596766181598
  H   -14.12146034150012      5.48663932644350      3.65187636056805
  C   -18.88392335947284      3.56895792042735      6.18655303712237
  C   -17.74179263414541      4.35385133620281      6.28399142336482
  C   -18.75885392589653      2.18938374178170      6.28534510296442
  C   -17.48593240327714      1.64155339033519      6.46717835184923
  N   -16.37625547566016      2.39312631545203      6.52695390483290
  C   -16.51489604228246      3.71660507217329      6.45005459627470
  C   -17.28662108324052      0.17738328913723      6.60294287512984
  C   -18.27209629984658     -0.64998907749581      7.16224646433492
  C   -18.02278766470577     -2.00867817923454      7.29176762077835
  C   -15.88563943999206     -1.62345914164533      6.30691446898929
  N   -16.11378005252193     -0.31034994758502      6.18689540036954
  N   -14.65942369948852     -2.17116082249943      5.87876972163544
  N   -13.95573755225017     -1.39939955032397      5.16721796350612
  C   -12.67914799023309     -1.88973080947553      4.84369395418063
  C   -11.93181870855274     -1.13668217319791      3.93034865903454
  C   -12.09767836901072     -3.01323515004074      5.45415595515374
  C   -10.78729502578485     -3.34105989353477      5.17610393689669
  C   -10.62092117908310     -1.47948127394530      3.65055376062636
  C   -10.01153756044989     -2.57475397481495      4.28367477559944
  C   -16.80246574046624     -2.51510352637693      6.86544280346237
  H   -19.85890310111356      4.02247747736539      6.04247218632005
  H   -17.79671953877428      5.43573694579114      6.23499041535919
  H   -19.63278509885946      1.55311903120748      6.20095373931377
  H   -15.59850632436315      4.29955100793594      6.52920556454289
  H   -19.19990600423903     -0.22597952457128      7.52682946423683
  H   -18.76618812383952     -2.66174462587259      7.73591802960210
  H   -12.38684313982120     -0.26383552062782      3.47179650351710
  H   -12.68272192887617     -3.60124223131138      6.15101082396049
  H   -10.34877714611822     -4.21573206449555      5.64530196695885
  H   -10.04103495057854     -0.85848627707378      2.97668239667944
  H   -16.54646498736009     -3.56456926911933      6.94845734959492
  Li  -14.83982447276801      0.60640474209695      4.82806761426801
  C   -2.77302297233868      0.29104550651670      8.00135580131728
  C   -3.95157562791685     -0.37175520749953      8.32915084786980
  N   -1.71229606477656     -0.48772008527231      8.44921957992654
  C   -2.20411685480762     -1.64893973154284      9.03670261493209
  C   -3.59423927372425     -1.59344801029625      8.97812253892753
  C   -2.35938891407774      3.86704033783582      5.67134696675412
  C   -3.25995331860069      2.85346744610583      5.31532142077759
  C   -1.58148573364484      3.68734170924874      6.82351472988253
  C   -1.71247566313023      2.54494422796833      7.60158589352128
  C   -3.37244959657675      1.70381698890826      6.07506613383497
  C   -2.60760557231535      1.52745104171830      7.23856529131488
  C   -0.29466549205730     -3.22856119206897      8.71579202624230
  C   -1.35736591411219     -2.74949492264724      9.49667400552603
  C   0.43958515291987     -4.33160341937085      9.11493181671622
  C   0.12116261228388     -5.02294100991288     10.29089033000579
  C   -1.65076319456813     -3.41887874183118     10.69491785698502
  C   -0.93748002505061     -4.54585590231151     11.07533500920302
  C   -4.52722902432225     -2.64437319279552      9.40536422602388
  C   -4.32465747513864     -3.97395882256000      9.01168408996587
  C   -5.67063336871129     -2.34555083330755     10.15911107965857
  C   -6.58471150081165     -3.33547554530857     10.49257695463797
  C   -5.22452318636754     -4.96558271634589      9.36235686943108
  C   -6.37605084549025     -4.66512999215260     10.10222107065358
  C   -6.20806649197874     -0.81022786502199      7.38409043996452
  C   -7.48508099906059     -0.40271458953369      7.03694084193405
  C   -5.30988637420577      0.07513831933924      7.99562257870994
  C   -5.73903184563952      1.38651427313879      8.24233627899946
  C   -7.90939787683438      0.91207023993816      7.26995896100564
  C   -7.01079764728315      1.80239174126449      7.87347487000564
  C   1.39512930339210      0.25036843235900      6.58910034956206
  C   0.05994180308405      0.02603791813576      6.87435056377510
  C   2.36441693622100      0.19354737194406      7.59850272653785
  C   1.95121997678179     -0.06381368368736      8.91101247669137
  C   -0.33961682075075     -0.22127622509485      8.18638652623244
  C   0.60602080802052     -0.24813339883708      9.21016212565543
  H   -3.83675042126014      2.95040685936110      4.40070855803077
  H   -0.89907154120368      4.47115460737246      7.13770457013728
  H   -1.12420049796428      2.44515966493089      8.50781565669078
  H   -4.04965604082724      0.91715433812111      5.76208201772110
  H   -0.06456017870690     -2.75628272414128      7.76827794055473
  H   1.22866706454039     -4.71441757575780      8.47476468663841
  H   -2.45507664588127     -3.05221358794782     11.32364770932500
  H   -1.18382235181085     -5.04539527295875     12.00726750487632
  H   -3.46257906524336     -4.22145705308535      8.40219642966374
  H   -5.84055685007453     -1.32457043590433     10.48516089967671
  H   -7.45372301767067     -3.08077820995431     11.09152277256726
  H   -5.07110068850834     -5.98027609682230      9.00916432829740
  H   -5.88810180520016     -1.82285594456265      7.16387995067982
  H   -8.15052921183064     -1.09440839442314      6.53013705691543
  H   -5.06696094207573      2.08183590958085      8.73489462105030
  H   -7.32703199036906      2.81758937909012      8.09341559523694
  H   1.70614070937658      0.41281163395356      5.56174680899857
  H   -0.67754625278811      0.02530780878917      6.08163359055619
  H   2.68494505900114     -0.09051109794154      9.71048845515890
  H   0.28958073851955     -0.42816703338610     10.23179166262737
  C   -4.47661047561181     10.80017299956025     -4.12187644045811
  C   -5.41816392083946      9.85623348428218     -3.73221307657659
  C   -3.31259301445763     10.93702841785981     -3.37719677393167
  C   -3.12351903321029     10.12278000217241     -2.25846894187355
  N   -4.04544991567648      9.22219682357706     -1.86973679165127
  C   -5.15631838055768      9.09742273613519     -2.59621888322831
  C   -1.90209060228874     10.18564800578527     -1.41458642016410
  C   -0.78491689762388     10.97470073972552     -1.72276359811521
  C   0.31837833084746     10.93695590813270     -0.88050903128026
  C   -0.86605842931279      9.38615462217274      0.48526269868345
  N   -1.92497916158654      9.41579890993650     -0.32332389847110
  N   -0.87828784699456      8.55902180108392      1.62945556309891
  N   -2.01093628068598      8.07648629850354      1.90528817164890
  C   -2.02072450795427      7.14582596683099      2.95808206352275
  C   -3.28078711369688      6.69532083303580      3.36824334363688
  C   -0.86449251670942      6.59289012512521      3.53492921713878
  C   -0.98243836227364      5.57075801456945      4.45581166605527
  C   -3.38916638438274      5.65904372576587      4.27730386020623
  C   -2.24229051285958      5.05622712130413      4.81412316655700
  C   0.29447060976717     10.12140963904573      0.24310927383492
  H   -4.64211031027087     11.42051991171216     -4.99618153212975
  H   -6.33452224625425      9.70896912031605     -4.29217417634038
  H   -2.57220246763471     11.67118089185204     -3.66961704473874
  H   -5.87300799936079      8.35213893550778     -2.25508053387471
  H   -0.76232591732813     11.59373264179727     -2.61027716450909
  H   1.19482983028354     11.53457711552006     -1.10699315498809
  H   -4.16384463506419      7.16742749273309      2.95282123195199
  H   0.10858534023489      6.94972440710602      3.21947978748055
  H   -0.08839505409149      5.11358958299321      4.86898471085336
  H   -4.36985448306973      5.30831633640636      4.58143438329633
  H   1.13129768717987     10.04820461063504      0.92752747235810
  C   -3.04947056448516     13.87264158451721      0.35391304727400
  C   -2.07887782233315     13.32963947995318      1.18632000771276
  C   -4.21860359883277     13.15658516724679      0.13261299988938
  C   -4.36977889900042     11.91020976103746      0.74711796322343
  N   -3.42053610755912     11.36611410040156      1.52351205160062
  C   -2.31224093645424     12.07413864782460      1.74141523982466
  C   -5.60516983709937     11.10725642435330      0.57180707329138
  C   -6.85100260487220     11.71630221721438      0.35728029764884
  C   -7.98172761123762     10.92266364509085      0.23029112065066
  C   -6.57273864736269      9.02104266985796      0.52055574438061
  N   -5.47738753850705      9.77891761131799      0.65210447933317
  N   -6.47918188641639      7.61751500685662      0.60252783727226
  N   -5.30407047745179      7.15690200544423      0.54212567130141
  C   -5.20477898398608      5.76922297387762      0.74912744213705
  C   -3.95501172288221      5.18484082871187      0.51278609306936
  C   -6.25122316526693      4.98333593539266      1.25894760099107
  C   -6.03063536321670      3.65257223714517      1.54621451932210
  C   -3.74706617390667      3.84528065734654      0.79214195446796
  C   -4.77379389159776      3.05367048786842      1.33185325151089
  C   -7.85144006308422      9.54361328266643      0.32172611245753
  H   -2.90349613732550     14.84183309743020     -0.11123809412692
  H   -1.16143541464195     13.86494017626626      1.40455748219278
  H   -4.98696723059651     13.55230382595942     -0.52215457508153
  H   -1.57291136382895     11.61665227690624      2.39715627479318
  H   -6.93458377088671     12.79610577226516      0.33397095881696
  H   -8.95529708151755     11.37642518119520      0.07985304695173
  H   -3.14783553374728      5.80379622862522      0.13251989973728
  H   -7.21944842093526      5.43650241932289      1.43398815666833
  H   -6.84818803763460      3.05011771041483      1.92852179033913
  H   -2.76237071024844      3.41669226513764      0.64057034507984
  H   -8.69767953608860      8.87190554819872      0.24134556288971
  Li  -3.72585526919624      8.70748611852008      0.33543387533621
  C   12.05484133135496      4.31576103471434      6.28990574404597
  C   11.95556234101788      2.93800698607781      6.42729995881631
  C   11.15821477750196      4.97247319490488      5.45778232314219
  C   10.18813941970391      4.22843328199570      4.78359990545705
  N   10.08487499686613      2.89353715638618      4.92345019570692
  C   10.95346676456333      2.27607046491173      5.72590335565258
  C   9.19170348902883      4.85834235896769      3.88414611501360
  C   9.35992488747629      6.14642108284767      3.35730374435044
  C   8.36934309674085      6.67822055179901      2.54307994642510
  C   7.17345354411558      4.63090514431683      2.80060470406590
  N   8.11840521518292      4.11246938161801      3.58961927493339
  N   6.00737896291107      3.89327736193225      2.50536978132026
  N   6.09295608931461      2.65398655986605      2.71250625721504
  C   4.87511452384336      1.95864102918004      2.56386146349060
  C   4.93107898192913      0.56517513378618      2.67492589879800
  C   3.63139133273145      2.59274953700817      2.41186792547605
  C   2.47547353875721      1.84085406221898      2.40594711055180
  C   3.76451495342790     -0.18310388426841      2.66030285598090
  C   2.51233574670900      0.44032707894919      2.54704384293531
  C   7.23849104704502      5.92163332178549      2.27096576913658
  H   12.81370525775352      4.87468972168397      6.82670840605962
  H   12.63343238936497      2.38458422105598      7.06687781583416
  H   11.20562864499928      6.04992096089374      5.35799737943507
  H   10.84515971887152      1.19723258424254      5.81566526535717
  H   10.25207482000558      6.72164051322222      3.57000168905289
  H   8.47971066997007      7.67453318382803      2.12880184224233
  H   5.89889692939430      0.09050703554859      2.80524244616793
  H   3.59351260435714      3.67073041422792      2.31192413422472
  H   1.51899843211228      2.33665312002279      2.27477978064160
  H   3.81928402488125     -1.25869828876265      2.79119676001782
  H   6.42580131644813      6.28900876799981      1.65574506857781
  C   11.30272951236453      1.90349249722990     -0.43372742939764
  C   10.39383515459046      2.94697458912784     -0.32418792205711
  C   11.36376284516287      0.95828856526815      0.58165849867654
  C   10.51361929907968      1.08781160664430      1.68120505789373
  N   9.62598620043201      2.09552574316321      1.78523145594383
  C   9.57853247345322      2.99545486346564      0.80178478403165
  C   10.51482336904130      0.11909782350706      2.80464739687795
  C   11.55639930243671     -0.79248414843421      3.02690889735235
  C   11.46631229550051     -1.66932957362446      4.09974147739372
  C   9.38260391888230     -0.65402096850256      4.65666338813219
  N   9.45485418641402      0.18168824439459      3.61867072236971
  N   8.26318149722223     -0.61569431052003      5.51805778321849
  N   7.55571204454897      0.42055579217866      5.40335860707392
  C   6.36469877499284      0.40250903893112      6.15337014621298
  C   5.47198628026891      1.44583485897014      5.88789174215217
  C   5.99753959797214     -0.62133632821446      7.04284014951188
  C   4.72484805691134     -0.63204834685060      7.57911874229114
  C   4.18360058582487      1.40233485404215      6.39268064873331
  C   3.77970034948613      0.34377208870848      7.21554988519408
  C   10.35381074536036     -1.61925455082998      4.92883871389568
  H   11.95170142326417      1.82021365453105     -1.29880319230491
  H   10.31127889378421      3.70598575262894     -1.09358473461163
  H   12.05158012419085      0.12543256583967      0.50199207593638
  H   8.85169513300092      3.79716284724119      0.91615825136041
  H   12.42654715896151     -0.81381087585996      2.38308599743866
  H   12.26046236858732     -2.38414123548484      4.28659204720019
  H   5.79777585925776      2.25463900099389      5.24381498440167
  H   6.70518847835428     -1.40933847672734      7.27003625103247
  H   4.42186523280986     -1.43910459991237      8.23958565948903
  H   3.47595792510707      2.18695072776632      6.14451905045973
  H   10.22862838269486     -2.28288764038711      5.77607330096763
  Li  8.50210490072535      2.04032656489183      3.68256172826157
  C   7.21528492573506    -11.66423675121221     14.57167850803722
  C   5.98039958631366    -12.21032778274942     14.24929309566983
  C   7.82488856952485    -10.80521280680436     13.66719540264527
  C   7.18002025887366    -10.51943375959564     12.46233425596276
  N   5.97759563995193    -11.03970966726066     12.15351985420045
  C   5.40430091342991    -11.86430364504593     13.03144991872091
  C   7.76575758268913     -9.61067640830116     11.44721378211684
  C   9.12410875640714     -9.26507079630295     11.43895108447735
  C   9.59257151543711     -8.39145661809022     10.46703763765226
  C   7.37866667386934     -8.31560993683185      9.58257497008973
  N   6.91715609005220     -9.14863444386127     10.51921007908603
  N   6.50448867530273     -7.77920230225849      8.61394939262997
  N   5.41411220591008     -8.39832869738516      8.48369117045569
  C   4.48736165768129     -7.76902736502888      7.63123817354454
  C   3.28132762015484     -8.44436166887315      7.41253163751562
  C   4.67219243633253     -6.48895521768100      7.08287158393568
  C   3.65368225899772     -5.89629912960850      6.36735216675877
  C   2.26335108142097     -7.84072676350071      6.69293691815569
  C   2.41867264444773     -6.54625745701412      6.17179909315983
  C   8.70623604394823     -7.88466938031141      9.52760015231060
  H   7.69622639228384    -11.89664778732011     15.51567187486105
  H   5.46782005754255    -12.88489937013803     14.92537606400035
  H   8.77717993101054    -10.35150069489153     13.91297382637799
  H   4.43455465166485    -12.27023404479487     12.75080106464461
  H   9.80706260872723     -9.67663132166567     12.17113920018518
  H   10.63967833156703     -8.10922206441479     10.44640320471535
  H   3.14932785427933     -9.42972554683720      7.84877470100443
  H   5.61412407054798     -5.97650809881307      7.23655508199015
  H   3.81325357894072     -4.91485399633290      5.93244495169495
  H   1.31652955418835     -8.35691288648681      6.57697627491073
  H   9.01136008077261     -7.18984148231946      8.75434781547065
  C   7.94731125391026    -13.96264065407934      7.87614538554937
  C   8.46993770203627    -12.67660498185588      7.86748633684339
  C   6.71842021521656    -14.18301778819058      8.48367300991423
  C   6.04871837196750    -13.10768115746854      9.06988609160302
  N   6.55162828723442    -11.85822837786825      9.05627016914081
  C   7.73222713385887    -11.66157729061651      8.46792553393760
  C   4.73259190944543    -13.25822728864780      9.73799693581007
  C   4.20038044359496    -14.49969063464988     10.11248708638122
  C   2.95564745096747    -14.54023462583427     10.72762401325641
  C   2.89365276584505    -12.16115470130695     10.59161708112876
  N   4.08164450049653    -12.11609539200835      9.98520411924249
  N   2.18798929580842    -10.96516764538399     10.84381528141886
  N   2.88949939244860     -9.92047222283485     10.75545699471347
  C   2.16585288428641     -8.71920091506694     10.85547164047588
  C   2.89568429416241     -7.54798756233329     10.62238146363233
  C   0.77820582669915     -8.64423475184494     11.06527946064860
  C   0.13895582440313     -7.42621474209166     10.95962707079686
  C   2.24095665844730     -6.33679704131005     10.48003627795040
  C   0.84770032803856     -6.26133588433124     10.61024344678073
  C   2.27211839260976    -13.35512824283739     10.96321250142118
  H   8.48339895194540    -14.78342384153016      7.41205522570609
  H   9.42484188160172    -12.45886877825770      7.40309261283524
  H   6.28682368218739    -15.17642055822261      8.48106969958153
  H   8.11015111115048    -10.64101633546999      8.47381711354700
  H   4.74686144744096    -15.41768208637012      9.93764745145792
  H   2.52512203036452    -15.49135322452471     11.02190654691696
  H   3.97249740464723     -7.62070274275920     10.51553965988694
  H   0.22089385536619     -9.54996821563708     11.27084014333571
  H   -0.93862175480708     -7.37017798332228     11.08054801463018
  H   2.80735263633566     -5.43741537059002     10.26128528871516
  H   1.29672348913895    -13.32972721350971     11.43431421646264
  Li  5.27989640038041    -10.42465158736321     10.17069078842718
  C   -12.52767424515447    -13.08041391766636     14.41130567988627
  C   -12.77508700396366    -11.72166603503199     14.26102575555070
  C   -11.29944759212004    -13.58670395147182     14.00642708740024
  C   -10.36146827450408    -12.71124179786713     13.45221828989067
  N   -10.60938823841036    -11.40485013728448     13.27302213499521
  C   -11.78552823693854    -10.93060016625313     13.68312075168603
  C   -9.02160519662522    -13.18064181542438     13.02050864953052
  C   -8.39038369531020    -14.27537964050812     13.62973946836282
  C   -7.12362250348909    -14.64981685859005     13.20488593585461
  C   -7.21718421567762    -12.86477780669315     11.62728193415093
  N   -8.43478822775803    -12.49183373714413     12.03673353160951
  N   -6.57150263584322    -12.15736904973824     10.59266597259016
  N   -7.31764714995710    -11.36623483945188      9.94880291301395
  C   -6.65645745711826    -10.56558319303594      9.00193783336788
  C   -7.46562418276175     -9.80404753966182      8.15027950500484
  C   -5.26034270977465    -10.42466327389373      8.93939182905329
  C   -4.70335929074317     -9.51432274997547      8.06566107349829
  C   -6.89665534212363     -8.90289888178708      7.26789955070041
  C   -5.50506372190155     -8.72110306708728      7.22128072272510
  C   -6.51097638978746    -13.92988297044038     12.18814320050766
  H   -13.27603961415704    -13.73680241663033     14.84268974971587
  H   -13.71176246971115    -11.28112204638052     14.58416604650721
  H   -11.08634182423244    -14.64553598672754     14.10136405175540
  H   -11.94511152188106     -9.86202717366806     13.54657993668692
  H   -8.86798084090004    -14.79660976662268     14.45049893809809
  H   -6.61351832003829    -15.48392070049689     13.67439708022775
  H   -8.54426642201386     -9.91160879854282      8.21408763611118
  H   -4.63654567330509    -11.02320868749767      9.59227971485046
  H   -3.62361582984396     -9.41669305968416      8.01723805321925
  H   -7.53863270317742     -8.28875667503292      6.64596663823608
  H   -5.52002835877003    -14.16851665012441     11.82091729465708
  C   -11.29282004145072    -15.83581723817219      9.69724122423152
  C   -9.93636165882145    -15.67953375780546      9.44254316090612
  C   -12.06099266288703    -14.71109705470195      9.96686042886443
  C   -11.44703491211239    -13.45677594451484      9.97540716791539
  N   -10.12843630338162    -13.30795368800660      9.75078643725879
  C   -9.40355020296327    -14.39529114655245      9.48723743326669
  C   -12.19280549499402    -12.19825148207283     10.23493763880820
  C   -13.58871549073802    -12.13236402450574     10.34955530922297
  C   -14.18816499430341    -10.89860991950906     10.56603402518123
  C   -12.01645651838200     -9.92036344833369     10.55296485514097
  N   -11.43750067789681    -11.10193392818274     10.34036067969370
  N   -11.22379220776516     -8.75654926003999     10.65120313300540
  N   -9.98497405644973     -8.98119935721353     10.74000047041942
  C   -9.17026170728455     -7.83716671356432     10.71241004906480
  C   -7.80549529221979     -8.04581251715607     10.94367825656076
  C   -9.62950966536336     -6.54960529456446     10.38596546969652
  C   -8.72416482116806     -5.51755977941680     10.24280660506495
  C   -6.90416087337323     -7.00923912723438     10.78370868382373
  C   -7.34223349778290     -5.73281999046400     10.40138137129133
  C   -13.39807843578103     -9.76062378637658     10.66129864701050
  H   -11.74993052992185    -16.81944248590696      9.68328369524453
  H   -9.30311206523795    -16.52949724931126      9.21544705180842
  H   -13.11900833323052    -14.82053723839218     10.17064591018904
  H   -8.34306471979610    -14.23225329666017      9.30176326053950
  H   -14.20242600787468    -13.01858644174274     10.25239606185053
  H   -15.26724136757307    -10.82663711967657     10.64989657169085
  H   -7.47258163755950     -9.03329259929066     11.24308903067810
  H   -10.68705965088118     -6.39121473340969     10.21241228996627
  H   -9.07385452568146     -4.53340542528860      9.94641712899645
  H   -5.84745450951189     -7.18173606108400     10.95918260917544
  H   -13.81560015671401     -8.77366149310893     10.82152774014102
  Li  -9.42262772786842    -11.29595595978551     10.66242151924821
