425
Coordinates from ORCA-job ORCA
  C   -3.46464813031235      6.41039956659721     12.33454220508560
  C   -4.16853137400113      5.17305290029995     12.49957676455345
  C   -3.21757520918765      4.15932827185704     12.60942620789703
  N   -1.95846315799775      4.74469653187505     12.50298345687631
  C   -2.09928172067463      6.12309090807727     12.35125724418569
  C   -4.04032333729501      7.76298352255472     12.33502425710793
  C   -3.56639528621741      8.78316675176571     11.49797769042518
  H   -2.82473632499674      8.54773404537958     10.74171422038048
  C   -3.97680582053878     10.09959678423154     11.66634715842645
  H   -3.52618653548038     10.86841683621767     11.04732363258334
  C   -4.90351479209459     10.45480018792514     12.65984646070066
  C   -5.45299384468628      9.41089754405806     13.42270820159060
  H   -6.19770962298965      9.63261366218548     14.17935316915277
  C   -5.02377898995079      8.10448579886456     13.27586101621008
  H   -5.42678176517289      7.33963738612496     13.92950756451620
  C   -5.61483631347693      5.03862337810136     12.72926055432529
  C   -6.56363984862256      5.72705789844167     11.96077136829518
  H   -6.23767878780386      6.28784009959428     11.09086077844430
  C   -7.90178350768421      5.76234047537113     12.33420526193829
  H   -8.58703319668242      6.36834327080116     11.75084936162979
  C   -8.35924542938239      5.09424784552538     13.48160317929058
  C   -7.41780281643007      4.33022974696877     14.19252741367727
  H   -7.72127579734004      3.77745491181026     15.07455171055674
  C   -6.08306260590502      4.31328762340252     13.83482812024015
  H   -5.38125984408832      3.76226612332917     14.45072464798180
  C   -3.45762258083831      2.76441331386418     12.98888143613030
  C   -4.48376591158769      2.02580907660033     12.38147800649149
  H   -4.99598444692101      2.43970286147612     11.51922480921558
  C   -4.90258232529858      0.81197096285471     12.90902775941996
  H   -5.74708725069674      0.31108372623279     12.44786746993743
  C   -4.30467319092382      0.26704442395782     14.05756943990207
  C   -3.21545687242687      0.96833236797579     14.60308198012863
  H   -2.70454106993347      0.58580329605839     15.47980823642840
  C   -2.80756195208260      2.18642637990443     14.09064590772931
  H   -2.00750192103665      2.71932660674480     14.59108092650610
  C   -0.74426757231710      4.06225907132077     12.80995468074570
  C   -0.41195130349277      2.86684124907515     12.17605410366921
  H   -1.03391854256490      2.49101068559506     11.37088522536527
  C   0.67222796740392      2.12118643702273     12.62648704926357
  H   0.85985018636481      1.15840956577204     12.16451227138037
  C   1.47395849842262      2.55774718537137     13.69404204199955
  C   1.16887422793779      3.81225728805537     14.25018723423007
  H   1.76180154488519      4.21215621668297     15.06453834482983
  C   0.07174293206214      4.54316134345210     13.83366811874260
  H   -0.17082559302405      5.47572671658910     14.32914007208789
  C   -0.95411797262829      7.03561485584497     12.38466695004310
  C   0.24550373286318      6.78450331669078     11.70267192721947
  H   0.31511743839050      5.93457339052851     11.03174442737719
  C   1.36813514560995      7.57415198252814     11.91643981273135
  H   2.29598849959077      7.30108432587418     11.42475916128120
  C   1.34017711482701      8.66353860171923     12.80205433048409
  C   0.10667646750318      8.96673092400141     13.40407483329268
  H   0.02488642146748      9.81933948913210     14.06959474139444
  C   -1.00497237779862      8.16734340869475     13.21455264371033
  H   -1.91840776686791      8.39299749532169     13.75316040314751
  C   -1.76590737319841      6.19067692592270     18.28927808523927
  C   -2.33987458023012      4.89409187939565     18.48556376708639
  C   -3.71900917822899      5.04555219011445     18.50670846189696
  N   -4.00081679182256      6.39939992673849     18.36045430174668
  C   -2.81098471620102      7.10140887338907     18.20219398575721
  C   -0.36703483569103      6.44249215919489     17.90770037038754
  C   -0.11685904619349      7.01561297672926     16.65356143873214
  H   -0.94987402518493      7.35899576747579     16.04779399023753
  C   1.16849506424181      7.10631690296764     16.15530664886196
  H   1.32606386538219      7.52578838056363     15.16905378009024
  C   2.27123458280279      6.66986570876329     16.90218429277466
  C   2.03134123781683      6.14037316106737     18.17703374375499
  H   2.86411155071586      5.78698259610444     18.77816971501830
  C   0.73150216644144      6.01021099452268     18.66136578319491
  H   0.56200022636783      5.55197157803935     19.63073773013232
  C   -1.63704874718527      3.61144890979281     18.31942474604196
  C   -1.67866621375610      2.55014435643445     19.23022946610390
  H   -2.20431823596831      2.67729127005886     20.17139481707929
  C   -1.06064052373610      1.33367987410435     18.94109467531922
  H   -1.11065529205813      0.52390285248517     19.66307096125496
  C   -0.41861615261387      1.12921186480248     17.71283568340184
  C   -0.38839350723481      2.19540927993048     16.80349631536227
  H   0.10557159758504      2.06541302452431     15.84880163095038
  C   -0.95830060853902      3.41363535263553     17.11037640070878
  H   -0.91294176457457      4.22628098373529     16.39292525336791
  C   -4.74034472784283      4.00513007587386     18.31681495898243
  C   -4.58931754949439      3.18959406691868     17.18763153462727
  H   -3.72047914176352      3.32110606417090     16.55094444268150
  C   -5.54411202633112      2.25035330039880     16.85614998252204
  H   -5.40897677981668      1.64679652552727     15.96702427963047
  C   -6.67211603451489      2.04688489017323     17.66253926800604
  C   -6.81374241165029      2.84181789154645     18.80812534374941
  H   -7.68353141161628      2.71508981748765     19.44579161216722
  C   -5.87171088000590      3.82112458372976     19.11954471245981
  H   -6.01554307643776      4.44740642713739     19.99441342469988
  C   -5.27960067484925      6.91053178009477     17.97747768397814
  C   -5.94382945419009      7.87365162223642     18.73080685885291
  H   -5.50740940870773      8.22298903507602     19.66069365575208
  C   -7.15358625240671      8.39608936013114     18.27569148325512
  H   -7.65508174340412      9.16137928211555     18.85983716229139
  C   -7.70456072573110      7.97579946932182     17.05867112675113
  C   -7.01866489071192      6.99810309293951     16.32390289340448
  H   -7.43462378542217      6.64047976504226     15.38940015588811
  C   -5.82841672962277      6.46428569402728     16.77711375963755
  H   -5.31250280339384      5.70945352790979     16.19355268600513
  C   -2.74493190113902      8.48480620243174     17.71149400312881
  C   -1.99799972957062      9.48073336997515     18.35168306262921
  H   -1.54438451293433      9.26606837606089     19.31402961702029
  C   -1.80829860893745     10.72700184795384     17.75824222442870
  H   -1.20959080468235     11.47563962742044     18.26842426238761
  C   -2.33354877033281     11.00277527091329     16.48955615711188
  C   -3.08941176835852     10.00369949094767     15.86022517932573
  H   -3.51668444150969     10.19386665941440     14.88317288053315
  C   -3.30582822409482      8.77981520163102     16.46113284421249
  H   -3.87809962125213      8.02552199886702     15.93201672825401
  C   -4.87321130335068     -0.90246299665443     14.75355869807406
  C   -5.70164508203787     -1.83926308757316     14.11089098197745
  H   -5.83958315318439     -1.79305749057649     13.03614668265713
  C   -6.36383742988982     -2.82132475896986     14.83092375594602
  H   -7.02766555607507     -3.52448766957950     14.33623507604325
  C   -6.18126521418574     -2.92329189342620     16.21539394598883
  C   -5.31775560930343     -2.02936024110087     16.86411682461699
  H   -5.19824595439169     -2.09196027605267     17.93891937439213
  C   -4.68563832198943     -1.03979912837630     16.14406281202671
  H   -4.08226975262680     -0.31925803004820     16.68417370643010
  N   -6.95317538238162     -3.87137438481086     16.91112046020882
  N   -6.52561699386015     -4.13557399027405     18.06794754644469
  N   -8.67221189081349     -5.04236819907243     18.50712560242865
  C   -7.38266846908589     -4.95453187888550     18.83500186280516
  C   -6.83326080085958     -5.59668929460463     19.94593874180110
  H   -5.78238269370046     -5.47094527514129     20.17774527677720
  C   -7.67483567198921     -6.39632123402823     20.70781059920737
  H   -7.29080133295569     -6.93367759777208     21.56825909020862
  C   -9.01732447629613     -6.50094260015917     20.36469580642660
  H   -9.67644354983291     -7.12479113092121     20.95471148220859
  C   -9.49249957623390     -5.79144680188916     19.25329680846024
  N   -11.14591221177088     -5.25074085498933     17.60887302868124
  C   -10.90862488945862     -5.81674857171201     18.80749169991207
  C   -11.93041411182626     -6.37852893042873     19.57501277528310
  H   -11.72908021476969     -6.81342625911628     20.54626410008740
  C   -13.22944276331272     -6.36241759554423     19.08401099038444
  H   -14.03829915648207     -6.79341513028232     19.66410804978455
  C   -13.47336316004739     -5.78259963761214     17.84637804748436
  H   -14.47225716753339     -5.74736813705807     17.42692850054122
  C   -12.39764953796130     -5.23901921644629     17.15095974785867
  H   -12.55069635361389     -4.77247975996613     16.17908600188591
  C   -7.62161189447095      0.99536749659169     17.25494010066656
  C   -9.14352304404838     -1.17423073371144     16.34057973191763
  C   -8.15311469248350      0.06585508838246     18.16136115384528
  H   -7.92846075821630      0.16033264664270     19.21913342804741
  C   -8.87850704268599     -1.02690737865563     17.70758376413594
  H   -9.23231570848116     -1.78845211002538     18.39624199274767
  C   -8.67650861350562     -0.21355330170495     15.43277262832473
  H   -8.87489270816480     -0.34176600055351     14.37534594418327
  C   -7.91221733578159      0.83773831903576     15.88729935109298
  H   -7.50831393690218      1.54404509553694     15.16928864416885
  N   -9.75685369308555     -2.36426166751282     15.91245900973719
  N   -10.29498853530746     -2.29677604387738     14.77451798479264
  N   -10.12341194411126     -4.65273515503559     14.71719301050314
  C   -10.71215265878438     -3.54640523548137     14.26333903661350
  C   -11.67822472347615     -3.55484195002929     13.25662482470101
  H   -12.10668562786222     -2.62275535601897     12.90788350778200
  C   -12.06430989240648     -4.78900795016421     12.74989457822304
  H   -12.82715815223407     -4.85130033069377     11.98127487345085
  C   -11.46383632310472     -5.94785916723873     13.22866105631025
  H   -11.76380523147044     -6.91091723992259     12.83554990777307
  C   -10.47543442298128     -5.84237750731049     14.21619858862879
  N   -9.00031578010139     -6.73668890145490     15.87583515914375
  C   -9.75823239341987     -7.00645229296483     14.79541704556678
  C   -9.85225210304987     -8.29222074346295     14.26054837462351
  H   -10.45135025535069     -8.49122579681072     13.38053380485786
  C   -9.15037436595011     -9.32699699402380     14.86511979840400
  H   -9.20911273611133    -10.33373855402951     14.46570659815192
  C   -8.37180016364660     -9.04969878908163     15.98069679692344
  H   -7.80689662192609     -9.82739393133292     16.48173927388548
  C   -8.32934075052125     -7.73830570925502     16.44412812686683
  H   -7.72675712242348     -7.48164044668581     17.31406827313653
  Li  -9.27201889379391     -4.65617142919864     16.58492420417234
  C   2.50018874109680      1.69316348177012     14.31313493827768
  C   3.05275965086276      0.57918659325856     13.65720118645117
  H   2.82784343356374      0.39656226498666     12.61222249372087
  C   3.87612447558241     -0.31278110710177     14.32805034381993
  H   4.27374616432430     -1.18990329519435     13.82600234786187
  C   4.21229208482511     -0.08849753751421     15.66808100805506
  C   3.71210209138410      1.04525872600639     16.32193619979033
  H   3.94887035739396      1.20385556188701     17.36696415615932
  C   2.86993505671227      1.90829100947409     15.65589201627890
  H   2.44505935440456      2.73434460356914     16.21356944135609
  N   4.97087140472419     -1.07017391362202     16.33519061374965
  N   5.52367981997453     -0.65788169237253     17.39006514586766
  N   5.77205733679494     -2.93524310641669     18.00747971438439
  C   6.14243980934216     -1.66394266825157     18.16430724383714
  C   7.08293733019214     -1.25439482650645     19.11075001471794
  H   7.32737354090796     -0.20349356827730     19.20944204528537
  C   7.68318551030820     -2.23627977998864     19.88778829420908
  H   8.43580092085058     -1.97124684802283     20.62256284671105
  C   7.30774539993000     -3.56399535311914     19.72407703173213
  H   7.77286087096551     -4.33273747477537     20.32782439269197
  C   6.32774270287589     -3.88193854480581     18.77371955803105
  N   5.05686869451374     -5.41445226065750     17.44486553256776
  C   5.83960266032632     -5.26287306725011     18.52997257525538
  C   6.15667042093713     -6.33321048609839     19.36807973065592
  H   6.77124346838653     -6.19388125701266     20.24887595424342
  C   5.65786572416455     -7.59444488631268     19.06905001562272
  H   5.89148105492982     -8.43992813663657     19.70706889155173
  C   4.85392161209771     -7.75123570288195     17.94803877809684
  H   4.44253284507348     -8.71750513900683     17.67962210444213
  C   4.58187069815571     -6.62937154841013     17.17115902731793
  H   3.95202095082987     -6.71206876481328     16.28686588464235
  C   0.23660564869177     -0.12893238026019     17.31258725898038
  C   1.68973646842638     -2.33067771622720     16.36050093021107
  C   1.07912244360582     -0.85160295241707     18.17052347729216
  H   1.20498901372416     -0.52420813710908     19.19779554265428
  C   1.82365737674893     -1.92139840901539     17.69314926351808
  H   2.52899275430422     -2.44240856632099     18.33391203654430
  C   0.80101383191815     -1.65676356507033     15.51104739485367
  H   0.71113118084822     -1.97274041610532     14.47860517504061
  C   0.10663333550089     -0.56477438761510     15.98069340246666
  H   -0.54034392558536     -0.01961411597459     15.30114670578974
  N   2.55591578701662     -3.33007948183716     15.88574464673672
  N   2.16227855610422     -3.90840523232658     14.83643306034233
  N   4.41793637275698     -4.53350831184902     14.51139986967295
  C   3.12977760956593     -4.75432725016905     14.25009220224364
  C   2.68947600570501     -5.74422686344381     13.37066012044064
  H   1.63048114336150     -5.86453626678205     13.17569010683272
  C   3.65239714191565     -6.55737062059328     12.78712487191183
  H   3.36029466407366     -7.35540745959196     12.11301748261388
  C   4.99694935888850     -6.34112920180829     13.06670269951244
  H   5.74921177073173     -6.97445417445335     12.61408916530119
  C   5.35086169590763     -5.29941386136857     13.93435809225312
  N   6.89154404703229     -4.07271466116851     15.29545184265336
  C   6.75168015609513     -4.96632357733239     14.29717250890545
  C   7.85242802117137     -5.53052854725534     13.65033751555439
  H   7.72540055855223     -6.23400872182162     12.83665242797083
  C   9.13087197991894     -5.16723597658273     14.05341560970539
  H   9.99996698317327     -5.59370605592834     13.56424077999459
  C   9.27523419329902     -4.24900741458786     15.08473244437756
  H   10.25447178115109     -3.93703703071978     15.42928824441530
  C   8.12420954816087     -3.73047722659732     15.66991760739535
  H   8.19776218202930     -3.00519821369090     16.47872613217150
  Li  4.94450124791433     -3.57192736858088     16.24179134218749
  C   3.60865469700784      6.78266995124470     16.29181502337028
  C   4.72040402588148      7.28481051370165     16.98476487682694
  H   4.62202139193861      7.55188850303983     18.03231193370351
  C   5.91481453496767      7.52891016226576     16.32101887276898
  H   6.75829085011017      7.98089197928061     16.83446944967737
  C   6.04171082307219      7.20761546059058     14.96380109873972
  C   4.95561635870903      6.64851338082312     14.27609589238848
  H   5.05803421956941      6.41795704708158     13.22244747982124
  C   3.75742908107381      6.46409092535147     14.92943830027393
  H   2.90643708504495      6.08068974031432     14.37544228446419
  N   7.22683466179321      7.57853758576326     14.30496411827671
  N   7.44854968735375      6.94996970848393     13.23463137017179
  N   8.87990264396837      8.73961040842890     12.65145574136866
  C   8.52330336913968      7.46733169155803     12.47655780026696
  C   9.11932529875920      6.63234540496675     11.53080070937734
  H   8.77341018117309      5.61229755220897     11.41327925499370
  C   10.16258317132637      7.15724144487150     10.77888204784342
  H   10.67285551003282      6.54233250651053     10.04530023203360
  C   10.54752843165185      8.47988130993543     10.96560467256078
  H   11.35999525203507      8.89199985559127     10.38092905774139
  C   9.86805054665357      9.25754190105087     11.91290803623328
  N   9.55679256362555     11.21304549889907     13.25777470576772
  C   10.17866847380423     10.68360357530659     12.18672457329902
  C   11.04636557554054     11.43301745584274     11.39065500971797
  H   11.52793786781270     10.99986949976569     10.52259311080552
  C   11.28116538578202     12.76274341998019     11.71580424113755
  H   11.95130125889342     13.36330140659644     11.11024494467221
  C   10.64089679136392     13.30819716679185     12.82038639104626
  H   10.79359923957126     14.34223134002251     13.10748453298740
  C   9.78792230124915     12.49130258733118     13.55612068095324
  H   9.26540793826692     12.88408942066676     14.42690427718511
  C   2.57084597854341      9.36165136181523     13.21544806308437
  C   4.99118335672964     10.37302874319986     14.23502699034918
  C   3.73079206336157      9.39368504651416     12.42201095989747
  H   3.69912447389326      9.02296717512415     11.40307972713773
  C   4.92913882601222      9.87122693556521     12.92887320475595
  H   5.83383859810613      9.86008962491045     12.32796856940714
  C   3.82727114583635     10.40991797746097     15.01532061197046
  H   3.88242325533607     10.77581227677964     16.03342734172708
  C   2.64703585143233      9.90995204359850     14.51150223228464
  H   1.78282892505833      9.88007930270489     15.16506420221077
  N   6.25411993057621     10.71922651319034     14.74725463032094
  N   6.21509057229597     11.43729755990277     15.78345150768203
  N   8.45535429939895     10.76689212034254     16.15979207775971
  C   7.46839730358777     11.62895301675026     16.40509448982390
  C   7.59195377445407     12.69316157164915     17.29969926078918
  H   6.74944665577505     13.35058265316176     17.47823943103841
  C   8.82158854872139     12.87120859005509     17.91996257769393
  H   8.97420405150259     13.69593644225551     18.60781603704910
  C   9.85803940047819     11.98270622266459     17.65875086153132
  H   10.81814248540468     12.11993448105417     18.13957373672498
  C   9.63508677021601     10.92101192866598     16.77153968870302
  N   10.34057162869265      9.08293357757456     15.40954820574617
  C   10.66333184089856      9.90681539422589     16.42495410454547
  C   11.88017771415429      9.80448779820243     17.10148974851022
  H   12.12052310603807     10.46232449247718     17.92758246252939
  C   12.78935821302258      8.83012967619001     16.71022087715178
  H   13.74090734453776      8.73393568092778     17.22191384459891
  C   12.45777146738838      7.98317350979092     15.66124733771316
  H   13.13787411386890      7.20900401497594     15.32496067549633
  C   11.22058591364655      8.14999179290306     15.04684451144458
  H   10.92409063228852      7.50241723652763     14.22306647404018
  Li  8.45135343783908      9.68299011178422     14.42289448039939
  C   -2.12537462332720     12.27110765614372     15.76716118904075
  C   -2.24278379126357     13.52572209609711     16.38316665184929
  H   -2.43817763938734     13.58349964195356     17.44936595576919
  C   -2.20182869954707     14.68976577515632     15.62788891832406
  H   -2.35671081594874     15.66110143815073     16.08820801197958
  C   -1.97532000244307     14.62342504904299     14.24771111357087
  C   -1.79702089052911     13.37750160361987     13.63048921058551
  H   -1.63740316648790     13.33394900464441     12.55972965252603
  C   -1.89137835063568     12.22628851227538     14.38038259164331
  H   -1.80167066595191     11.26461680138806     13.88502343661979
  N   -2.05914837829690     15.81595788198426     13.50630186312316
  N   -1.49126318808319     15.77068976734895     12.38193661072949
  N   -2.85096567399993     17.60950023743726     11.77787732917338
  C   -1.75081882941194     16.88973229543587     11.55855239070196
  C   -0.86824146958607     17.14659821394587     10.50861868777942
  H   -0.00111390587136     16.51360492473124     10.36258902726915
  C   -1.14238508728533     18.23672184961665      9.69279752980557
  H   -0.47500513203454     18.49195578199646      8.87666872801126
  C   -2.28240642633144     18.99792026768684      9.92297472813737
  H   -2.49864137757812     19.84860553807550      9.28936778076619
  C   -3.13349075346571     18.64475374057145     10.97851501645021
  N   -4.95740573145065     19.03373212090172     12.47851983044328
  C   -4.38436606055675     19.37375765266991     11.30806536175994
  C   -4.93866883456446     20.33902138613459     10.46591030243301
  H   -4.47723714439763     20.58892855277906      9.51836215743249
  C   -6.11176510342013     20.97541949789960     10.85047302074567
  H   -6.56015284067683     21.72822768866462     10.21114041728896
  C   -6.70025862296473     20.62817979613108     12.05913879461268
  H   -7.61656622397735     21.09917221597506     12.39609622934709
  C   -6.08434439280145     19.65018672676450     12.83410409904815
  H   -6.51730341491091     19.34855257176072     13.78653982541073
  C   -5.17663344035521     11.86129457821968     13.00655249035136
  C   -5.36298084261423     14.53867048334473     13.85485586068363
  C   -4.99128188585055     12.92008020449634     12.10047486527079
  H   -4.77281160481789     12.70867594655178     11.05923452306244
  C   -5.05940712137498     14.23926123718133     12.52072921393476
  H   -4.87812804297494     15.05581237457649     11.82785123597304
  C   -5.61513286321844     13.49469384292032     14.75560551118324
  H   -5.82333916943869     13.72728791970136     15.79293845618890
  C   -5.51459513366919     12.18706374481753     14.33540046379724
  H   -5.63161130539052     11.40145671568454     15.07283681045015
  N   -5.28872248736347     15.88204969318426     14.26176827435306
  N   -5.87300149136904     16.12818189358269     15.35230163152594
  N   -4.55716207726272     18.09344638953185     15.44624614398011
  C   -5.63681532257873     17.42648593020622     15.85482160398288
  C   -6.52572001533400     17.92654293369228     16.80735858689269
  H   -7.37524132016103     17.33150152303909     17.12074291571320
  C   -6.28188021162953     19.19901782300052     17.30728734565161
  H   -6.95518343011521     19.64091331789221     18.03391517221468
  C   -5.16524898009714     19.90485747831533     16.87507827740258
  H   -4.97343840110718     20.89774986765319     17.26155548636291
  C   -4.30554819018546     19.31051071695461     15.94128256828506
  N   -2.49066551948383     19.33710695148995     14.38073314303860
  C   -3.07880955298486     19.96347179846082     15.41808417870438
  C   -2.56090775317477     21.14060185405520     15.96060111613754
  H   -3.03328145821102     21.62484082062166     16.80642046323553
  C   -1.40984301297339     21.68797521471135     15.40902764722097
  H   -0.99067111258473     22.60220083916381     15.81521809317211
  C   -0.80553846517502     21.04433659002150     14.33765074656462
  H   0.09460798260423     21.43653770039563     13.87845114848030
  C   -1.38446245670704     19.87126765947602     13.86338602924790
  H   -0.93696633028740     19.33618504724345     13.02722952017643
  Li  -3.69991242882259     17.63049637465359     13.64394591567790
  C   -8.96508572117281      8.50299769984613     16.50273580087744
  C   -10.10675661735687      8.71907931085524     17.28794905307990
  H   -10.06032238642090      8.55483799383605     18.35988704477089
  C   -11.31773664302546      9.05273032856679     16.69669241427396
  H   -12.21972416036097      9.16047512310310     17.29173636925820
  C   -11.39417751052173      9.23564396457091     15.31108871781478
  C   -10.24574343236089      9.07985718176536     14.52284607084516
  H   -10.31673628966213      9.20960411899034     13.44954720124626
  C   -9.06024388497024      8.70343725475924     15.11411447199469
  H   -8.18766615845927      8.54042495692871     14.49004102218598
  N   -12.66286245056367      9.45088094068244     14.74069171134930
  N   -12.63414271609379      9.97516957554745     13.59555273805491
  N   -14.82285871874124      9.12634199195009     13.30539787311617
  C   -13.88630174042067     10.00147558769573     12.94034356922565
  C   -14.05475069872173     10.90781826325003     11.89306358828182
  H   -13.24931441739033     11.58044449367311     11.62323882366644
  C   -15.28202838592005     10.91465427188090     11.24254761306748
  H   -15.47139854489421     11.61509602009338     10.43625267083347
  C   -16.26764120046526     10.01290886794947     11.62610981102205
  H   -17.22558372041762     10.01602710066125     11.12175966187129
  C   -15.99779489410715      9.11198868383124     12.66518160196122
  N   -16.62446698767068      7.46992283526589     14.28973098963378
  C   -16.96771621272860      8.09706462321138     13.14829865388169
  C   -18.15057088832650      7.80163720870703     12.46902290494375
  H   -18.40437372987300      8.30027289868926     11.54159616008924
  C   -19.00467030176398      6.83836502930237     12.99013963071184
  H   -19.92881000982754      6.59259305764302     12.47823882572360
  C   -18.65299164455280      6.19467080485784     14.16896439563503
  H   -19.28972936027070      5.43574577901374     14.60891880609219
  C   -17.45169002803341      6.54554141295242     14.77741299485483
  H   -17.13982218539820      6.06111590639055     15.70133131248936
  C   -9.72008368135763      5.28775872762172     14.01516354587623
  C   -12.21175282674456      5.91359858901970     15.16877516879936
  C   -10.79760753146651      5.71736289561191     13.22051125175483
  H   -10.67731673589460      5.80354458557216     12.14605501273847
  C   -12.01744441091666      6.05080266323915     13.78881088030695
  H   -12.83783297373652      6.41425437188217     13.17675844666434
  C   -11.16310651419261      5.43872661163917     15.96861518952429
  H   -11.30506034927466      5.36529360117498     17.04003868705797
  C   -9.94408487408784      5.14529154158454     15.39955285802960
  H   -9.12927848669868      4.85724288815796     16.05375916721983
  N   -13.42933377210968      6.35820356284825     15.71301578700529
  N   -13.68099382221079      5.89603565278044     16.85957671428026
  N   -15.22373802197990      7.67817989792221     17.09310435355080
  C   -14.80394752978959      6.47608921861861     17.48840006156776
  C   -15.38675675807206      5.77544009947348     18.54571930782989
  H   -14.98969840765065      4.81109021582850     18.83941335290283
  C   -16.48159481853613      6.35434035152237     19.17353080604389
  H   -16.98288238908673      5.84011225931787     19.98644917152586
  C   -16.92991011629942      7.60293723555917     18.75931050189681
  H   -17.78242836438318      8.05671905036786     19.24833808159916
  C   -16.26219222263623      8.25187271737136     17.71221345855973
  N   -16.01911202124946      9.97528240197452     16.06832255487449
  C   -16.64028003839081      9.59373597479620     17.20076272171071
  C   -17.56610182351457     10.41352341387598     17.84853075617022
  H   -18.04544164445458     10.10144295129441     18.76820776101846
  C   -17.86124995159657     11.65740428582110     17.30580423979412
  H   -18.57709057058772     12.31042979294905     17.79330144088598
  C   -17.22199206052473     12.05018009191292     16.13761589626704
  H   -17.42127453745034     13.01339179562054     15.68212070190510
  C   -16.30908004629916     11.17304395919805     15.56034615799635
  H   -15.78638556776904     11.44742215287699     14.64532642411388
  Li  -14.80452019246565      8.33435439561197     15.19838133361358
