425
Coordinates from ORCA-job ORCA
  C   -3.53907211235457      6.25710036530732     12.37365008879896
  C   -4.24431287166742      5.02159623422334     12.53706440919029
  C   -3.29452118092573      4.00509134917555     12.63214201174737
  N   -2.03416771491372      4.58875342268525     12.51367155496253
  C   -2.17539244902374      5.96817584031994     12.37059985805698
  C   -4.10510016629795      7.61381136501302     12.39297583383252
  C   -3.65344872811598      8.62954954981642     11.53980413285371
  H   -2.94589034030179      8.38792406226513     10.75325639094944
  C   -4.04303942782839      9.94937287956916     11.72835911212546
  H   -3.61284506489805     10.71424690864822     11.09066706387154
  C   -4.92219868217846     10.31281056055970     12.76173008608711
  C   -5.44730513926079      9.27420938346003     13.54921248702427
  H   -6.14866622563478      9.49854713717898     14.34577840881674
  C   -5.04378408369963      7.96246475431570     13.37531244462414
  H   -5.42878701003398      7.19930301047461     14.04183757224709
  C   -5.69176479614636      4.90460168319305     12.76966325087286
  C   -6.62039102716312      5.63404577235097     12.01435236344907
  H   -6.27566789050652      6.21201511960160     11.16314238950202
  C   -7.95932616129825      5.68888418824364     12.38058789884154
  H   -8.62844910486545      6.32743574177319     11.81323962620818
  C   -8.43746444299553      4.99781955570245     13.50537867807563
  C   -7.52010045778595      4.18901022070593     14.19753484342336
  H   -7.84873791171694      3.61624006820872     15.05816072598252
  C   -6.18215085397946      4.15261793088852     13.84786903527285
  H   -5.49716928785514      3.55882986107254     14.44340985859461
  C   -3.53254778500096      2.60853971680051     13.00420894028627
  C   -4.57399887071793      1.88228791566385     12.40761807332352
  H   -5.10331021673475      2.31188939316729     11.56365692084385
  C   -4.98316182521532      0.65994735686916     12.92210826807160
  H   -5.83939970870432      0.16901912969684     12.47197990501874
  C   -4.35896012250737      0.09275670045775     14.04516776147376
  C   -3.25440685440756      0.78114443012709     14.57620298043645
  H   -2.72192992231669      0.37417961564770     15.42865720199950
  C   -2.85756651490797      2.00959551717498     14.08001465566618
  H   -2.04403990330920      2.53198742969068     14.57058810434230
  C   -0.81399761399576      3.90811028759750     12.79585878152344
  C   -0.48850643214890      2.71223130682060     12.15842817136217
  H   -1.12451358260367      2.33068872982157     11.36707412546171
  C   0.60775107703444      1.97226281440438     12.58874059769973
  H   0.78885004548186      1.00907528441449     12.12510216113937
  C   1.43018515258907      2.41432718642421     13.63818978826220
  C   1.13400633538462      3.67191048033982     14.19235081231983
  H   1.74635248365866      4.08236955368315     14.98701752641849
  C   0.02373693751567      4.39412764941529     13.79952859435801
  H   -0.21143869038361      5.32740814368722     14.29508356220436
  C   -1.03860013202519      6.88995159293987     12.42097982025601
  C   0.16032337290212      6.68661553378758     11.72300461725990
  H   0.24059064598886      5.86428971584849     11.01954213853050
  C   1.26951054305486      7.48920345086038     11.96027890155847
  H   2.19698805343062      7.25389601258621     11.44897920546624
  C   1.22971484400727      8.54061799249356     12.89079557479530
  C   -0.00233381808425      8.78953873578715     13.52079498258082
  H   -0.09729767329538      9.60320952821152     14.23154372423653
  C   -1.10015014574892      7.98062063501361     13.30271796742686
  H   -2.00853703990789      8.16025563685603     13.86525137611176
  C   -1.71542960198136      6.14624620895456     18.34278021625149
  C   -2.28264255404231      4.85523522427161     18.50483639266129
  C   -3.66303983681080      4.98910987439199     18.48791883350636
  N   -3.95122624650351      6.35050078205029     18.32083697504227
  C   -2.76466839453456      7.05554045148725     18.21340529660410
  C   -0.32819160424727      6.39588816487059     17.94754226589849
  C   -0.07983014583327      6.80994591486344     16.63418362812718
  H   -0.91571671092700      7.01623244327340     15.97401171672697
  C   1.21450349926984      6.92152698365389     16.16332211137127
  H   1.37904401743019      7.22723217368847     15.13630132775634
  C   2.31485557381161      6.66535003889421     16.99276822984784
  C   2.06687954993114      6.28772985379190     18.31832711979910
  H   2.90000624006072      6.07062162151059     18.98067668349294
  C   0.76131953784277      6.13800976573458     18.78633355524180
  H   0.58191479957212      5.80224574103826     19.80215766690961
  C   -1.54503584535652      3.58870558241127     18.34141408544226
  C   -1.53363005989485      2.55547505211099     19.28501224660329
  H   -2.01589380891004      2.70834918056611     20.24522517782987
  C   -0.91919619314214      1.33478231687325     19.00453418430330
  H   -0.93205609641338      0.54596110890043     19.75094008305804
  C   -0.33111239856364      1.10038212767254     17.75563539469711
  C   -0.34987143128004      2.14072684452040     16.81613801281620
  H   0.10811190492836      1.98970676477124     15.84643468903856
  C   -0.92269643395368      3.36147779319839     17.10849562838513
  H   -0.91311321764852      4.14946523006434     16.36244735355941
  C   -4.65234413511053      3.91705628765768     18.30902354090012
  C   -4.48560816125166      3.07728971014407     17.20040309670392
  H   -3.60870413110394      3.19472171410866     16.57165302415640
  C   -5.43173186221516      2.12390524192121     16.88281165230818
  H   -5.28246431472142      1.49959234786188     16.01018237431978
  C   -6.57274556012780      1.93978775046507     17.67614579384881
  C   -6.72954051259472      2.75741586882105     18.80332736284440
  H   -7.60722394370138      2.64311923752690     19.43253419435989
  C   -5.79200777673618      3.74425439554128     19.10378495947285
  H   -5.94371926246150      4.38750508014679     19.96494779920560
  C   -5.23543949637275      6.87113510758740     17.95808976194708
  C   -5.82198455013728      7.96074558952951     18.59747910872198
  H   -5.33525814377314      8.40252631097325     19.46160275563551
  C   -7.01660591279493      8.49355404533025     18.11977182254001
  H   -7.45431411581288      9.35062139064192     18.62165724164137
  C   -7.63409891715516      7.96368074872182     16.97879455241766
  C   -7.03250226516435      6.86080719446283     16.35654746242893
  H   -7.49183205825697      6.42616138410286     15.47728416881987
  C   -5.86216442580343      6.31405003530389     16.84304068362503
  H   -5.41482102947726      5.46232257858467     16.34110804410107
  C   -2.62804805194297      8.42903671054254     17.71915913940222
  C   -1.83488190421657      9.40550632204654     18.33152047090631
  H   -1.34802750550957      9.18331544457140     19.27584902511240
  C   -1.63996042450449     10.64617205901274     17.72948562772093
  H   -1.01017192275838     11.38268538408900     18.21945667637640
  C   -2.19889578872333     10.93394628337433     16.47718880146821
  C   -2.99479453632645      9.95179269152655     15.87155772464265
  H   -3.44478612534716     10.15027752083206     14.90623603018522
  C   -3.22676395209725      8.73869433761319     16.48804376779449
  H   -3.83569529356839      7.99393168448000     15.98626783848093
  C   -4.91716742640454     -1.08564472883041     14.73409304664320
  C   -5.75476898260566     -2.01448133389081     14.09163225502322
  H   -5.90135124220971     -1.95986385578250     13.01838549427576
  C   -6.41627242462950     -2.99770772337105     14.81065787290134
  H   -7.08955751854069     -3.69277373581189     14.31739818798301
  C   -6.22412063676699     -3.10807940473043     16.19326448661892
  C   -5.34817466407075     -2.22537710617015     16.84004485626100
  H   -5.22093152577185     -2.29526336273338     17.91356813457924
  C   -4.71575745139944     -1.23516849586306     16.12095268236041
  H   -4.10314200165879     -0.52236172787055     16.66093960523053
  N   -7.00152802952125     -4.04827437804934     16.89325228115722
  N   -6.56329524961691     -4.32765114484568     18.04228255007053
  N   -8.72685434458749     -5.17472399442489     18.50908360216248
  C   -7.43049658068426     -5.12856710601659     18.81753472900025
  C   -6.88392860207676     -5.79483594759787     19.91532790058510
  H   -5.82636540566618     -5.70281850604780     20.13211538310456
  C   -7.73842227414474     -6.57311673071489     20.68502836465494
  H   -7.35829238518510     -7.12738088972617     21.53642714667986
  C   -9.08853934372590     -6.63442981645715     20.36193558643855
  H   -9.75726086145457     -7.24077692725519     20.95932275836427
  C   -9.55867231385156     -5.90366943184931     19.26211265528397
  N   -11.22039819301150     -5.28612059539776     17.65282492535985
  C   -10.98123581074119     -5.88256910873881     18.83644325895427
  C   -12.00680105130069     -6.43305147672504     19.60706894632532
  H   -11.80381730031107     -6.89459062968893     20.56557283356067
  C   -13.31185011294854     -6.37179340786594     19.13602090377817
  H   -14.12353205324417     -6.79347974195226     19.71900787346904
  C   -13.55793503800550     -5.75918320869439     17.91473465901764
  H   -14.56155337223701     -5.68771535472800     17.51146954729243
  C   -12.47788420977064     -5.23062689255686     17.21443309920608
  H   -12.63234689744851     -4.73897023460761     16.25527638175794
  C   -7.52749379986629      0.89104182659030     17.27401104350708
  C   -9.09576865202630     -1.25026387804882     16.36948646374087
  C   -8.08527484619348     -0.01821934067018     18.18499128312153
  H   -7.86776352518094      0.08294521268672     19.24366233887355
  C   -8.83290278611650     -1.09837962299005     17.73641053007118
  H   -9.21225694015288     -1.84273539397568     18.43019893330107
  C   -8.59354185064118     -0.31365590176975     15.45538272636833
  H   -8.78653316432712     -0.44820591661680     14.39778940223811
  C   -7.80509759880945      0.72143539226099     15.90531059783628
  H   -7.37124811769242      1.40576725179714     15.18372475876326
  N   -9.74857392879230     -2.42136267779974     15.94693862089546
  N   -10.29079423637597     -2.33368091433225     14.81236408127471
  N   -10.21146730126818     -4.69570713940072     14.74567765983748
  C   -10.75749752597720     -3.56463771952129     14.29957065742415
  C   -11.72709269013677     -3.52963622722215     13.29667324116845
  H   -12.11910048511651     -2.57912047291950     12.95489661087345
  C   -12.16392451430413     -4.74442147476950     12.78495320494965
  H   -12.93192628859453     -4.77237877975093     12.01946738043904
  C   -11.60663175381786     -5.92841784855660     13.25390651772452
  H   -11.94541212655956     -6.87660930890345     12.85637203789633
  C   -10.61059456955146     -5.86746332412013     14.23756708610634
  N   -9.15918229437389     -6.83092253122276     15.87927069572843
  C   -9.93445187487660     -7.06264346009289     14.80246153060467
  C   -10.08038623068687     -8.33920453507741     14.25724890826620
  H   -10.69221038612964     -8.50802919242498     13.37961962150818
  C   -9.41340491774355     -9.40485928597489     14.84752462177097
  H   -9.51242043887872    -10.40506668996627     14.43972751981518
  C   -8.61701885739841     -9.16677112585525     15.95959022567621
  H   -8.07785246972869     -9.96939360184050     16.44951967399009
  C   -8.52208302312457     -7.86201799392103     16.43382295947611
  H   -7.90418974303042     -7.63563693587007     17.30135360572575
  Li  -9.34408117144484     -4.74282748158799     16.60418773963354
  C   2.47502632615569      1.55899939579483     14.23827656532604
  C   3.01602450679512      0.44095261151441     13.57909449162802
  H   2.76603803202801      0.24700720656714     12.54196406047382
  C   3.86308970164905     -0.43916967418685     14.23589029179245
  H   4.25297886777290     -1.31845173171831     13.73157436342543
  C   4.23219322752408     -0.20072376591905     15.56476798681110
  C   3.73833214986125      0.93332447405190     16.22253980625714
  H   3.99966516586694      1.10162355076166     17.26016091750105
  C   2.87417272226336      1.78514586882340     15.57057338055558
  H   2.45174908563353      2.60741495977478     16.13548726185504
  N   5.01740263781358     -1.16794760179529     16.22144586891018
  N   5.60041245896773     -0.73740335845707     17.25246535354485
  N   5.86878876448104     -3.00400389210247     17.89546626534769
  C   6.24475271407864     -1.73113393991730     18.02219277783148
  C   7.21512699636735     -1.30900475479062     18.93200292425058
  H   7.46362541543226     -0.25717926829833     19.00810401773134
  C   7.83925614175786     -2.28096432781643     19.70289616423459
  H   8.61515940960681     -2.00663066620600     20.40947812680245
  C   7.45848099880638     -3.61052500423531     19.56962024280941
  H   7.94257220913102     -4.37104759447962     20.16885594579979
  C   6.44830330178425     -3.94096075378637     18.65572256877710
  N   5.13087818446899     -5.48852890553609     17.39096249310399
  C   5.95244362791265     -5.32457291003573     18.44531024785413
  C   6.30069767089778     -6.38566888656301     19.28277206789152
  H   6.94657232344255     -6.23729737118797     20.13944758902015
  C   5.79265870941856     -7.65033276823807     19.01555032907364
  H   6.05014661890990     -8.48866704724199     19.65381928218555
  C   4.94890578678511     -7.81992002108324     17.92616327013760
  H   4.52911769033698     -8.78932659969110     17.68326930217412
  C   4.64775290444468     -6.70660768812028     17.14774183801943
  H   3.98658896445670     -6.79917824795464     16.28763354315301
  C   0.31095700163636     -0.16605804716428     17.35883009348125
  C   1.72466027442177     -2.38771203835292     16.39290562580881
  C   1.18449966229191     -0.87399498651872     18.19730054760601
  H   1.35058529108729     -0.52799444285710     19.21267587879390
  C   1.90924423652137     -1.95413832389080     17.71153225866517
  H   2.63668017921171     -2.46534948691680     18.33522941127267
  C   0.80530393481617     -1.72787047055862     15.56539479438440
  H   0.67631682457010     -2.06116318619164     14.54253390030085
  C   0.13006491378801     -0.62698235980368     16.04164302019709
  H   -0.53982250521548     -0.09204787046552     15.37657214477868
  N   2.57173572393058     -3.39683371577768     15.90245628496868
  N   2.13614914061763     -3.99019535098864     14.87878096524287
  N   4.37534784489688     -4.63329492670680     14.47693009226816
  C   3.07699376623164     -4.84757731373823     14.26571087996918
  C   2.59775126572986     -5.84189348046209     13.41207841237589
  H   1.53143128011030     -5.95721766037471     13.25851831555600
  C   3.53327681032273     -6.66451943101064     12.79800287008153
  H   3.21139169375285     -7.46549391702712     12.14115604345228
  C   4.88858290920098     -6.45366636467540     13.02380289211702
  H   5.61888078080467     -7.09360092229386     12.54519650056185
  C   5.28157152359849     -5.40866298751374     13.87060544611585
  N   6.87915858804346     -4.17602753190634     15.15890915674879
  C   6.69704027336784     -5.08165928254083     14.17835126001472
  C   7.76964536804874     -5.66293691096824     13.50026157493299
  H   7.60852418250958     -6.37787472292289     12.70280021553686
  C   9.06431983577046     -5.30318638346097     13.85139713198184
  H   9.91219585321005     -5.74263445626377     13.33714111986060
  C   9.25220360117140     -4.37171184722830     14.86356091750903
  H   10.24537413290256     -4.06165337042297     15.16753660953195
  C   8.12676056772384     -3.83744491756559     15.48339043943338
  H   8.23450804397438     -3.10212465678978     16.27925591893479
  Li  4.97727889839890     -3.65564846033502     16.16921471359489
  C   3.66387956036139      6.81247860196632     16.41635792520968
  C   4.71134488379575      7.45137519850977     17.09618921299454
  H   4.55777236693491      7.79817230921741     18.11318618857280
  C   5.90513522530747      7.73448214771386     16.44720671657215
  H   6.69365879208297      8.29182003873708     16.94432223653531
  C   6.09772711936413      7.32518365425991     15.12217329598182
  C   5.08356254377507      6.62339874002330     14.45566115459974
  H   5.23522197149709      6.32157406124078     13.42609890929639
  C   3.88462627201365      6.39103526434027     15.09259351702912
  H   3.08830441383831      5.88969851727026     14.55126786548479
  N   7.26290977990274      7.75600119353015     14.46270989749600
  N   7.56152509184325      7.08622549735667     13.43775422527310
  N   8.85134052005082      8.95366979101939     12.77191525326938
  C   8.60418291360998      7.64818312371525     12.66625365028229
  C   9.28358463784681      6.81273358493449     11.77899758875529
  H   9.02513284936111      5.76232711148669     11.71757697945961
  C   10.29233748024640      7.37895490377053     11.01009742487266
  H   10.86456599462780      6.76779840622058     10.32044726783817
  C   10.56232756800322      8.73768255305536     11.12338264131788
  H   11.34753617081750      9.18220226624837     10.52526119653229
  C   9.80532948790850      9.50884134746187     12.01571704511673
  N   9.32217548998469     11.50379998486823     13.24663812592359
  C   9.99416385560903     10.96887581170739     12.20919885231574
  C   10.80280323315542     11.74189646770813     11.37454423320441
  H   11.32482194301261     11.30222372892551     10.53356830690334
  C   10.92409006973611     13.10269794008753     11.62488014528586
  H   11.54672223444262     13.72207043880596     10.98836480282546
  C   10.23288826696727     13.65379366330688     12.69542618481895
  H   10.29793977434080     14.71128283694854     12.92450281914298
  C   9.44487170376843     12.81144133649752     13.47358152170237
  H   8.88594738346604     13.20739534644862     14.32002739250876
  C   2.44349119968183      9.26645523003846     13.30648470006969
  C   4.82100054403454     10.40800873530756     14.29202546512002
  C   3.59672440902513      9.33995823312510     12.50560599375141
  H   3.57501784562866      8.96003612449617     11.48999251766850
  C   4.77509391355119      9.88045854527384     12.99579868146110
  H   5.67359006785904      9.90667113346447     12.38625603136712
  C   3.66573806539210     10.38779770223478     15.08590691976231
  H   3.71201262832388     10.76892020930956     16.09880491782695
  C   2.50841037381622      9.82052044583072     14.60101500905788
  H   1.65562987288088      9.74893170346907     15.26605355323905
  N   6.06258141086066     10.85254682735380     14.77993287747338
  N   5.98036171671604     11.60871684268110     15.78627525839331
  N   8.26669257754426     11.11914974495511     16.17281874047612
  C   7.22001561187947     11.91695546494510     16.38729758614873
  C   7.26868318500671     13.02779643573315     17.23104793943331
  H   6.38011174046691     13.62797318222156     17.38620003592447
  C   8.48472997904815     13.32611005259513     17.83140862941539
  H   8.57952614124856     14.19120347406564     18.47886414684289
  C   9.58247880078841     12.50514560058730     17.60245293155116
  H   10.53218261741870     12.73553311524800     18.06802078813916
  C   9.43435288240627     11.38872779199159     16.76842168253554
  N   10.26930698568328      9.54168415268897     15.49519942031675
  C   10.53306494666682     10.43666790991579     16.46630899807618
  C   11.75423872526351     10.45568261768381     17.14234847820692
  H   11.94701258961844     11.16945468296409     17.93381647455869
  C   12.73011547818765      9.52947801432459     16.79808333301665
  H   13.68595347268994      9.52654642975901     17.31081734697493
  C   12.45909615446186      8.60831188874339     15.79527335243346
  H   13.19168398651915      7.86705088619021     15.49726731163140
  C   11.21320941989642      8.65580270661128     15.17748713423692
  H   10.96275119725056      7.94808315068286     14.38884096553347
  Li  8.33824193198193      9.95381748070595     14.49062782666978
  C   -2.00195431304029     12.20334553730548     15.75435442088212
  C   -2.11842005494490     13.45506332080241     16.37682438704719
  H   -2.29649300987500     13.50747529622999     17.44635151626806
  C   -2.09893541555924     14.62137922664072     15.62473742556944
  H   -2.25605988225214     15.58999973688404     16.09003165436821
  C   -1.89054197358234     14.56069728293396     14.24136903142040
  C   -1.70726623681073     13.31844524802708     13.61794487059133
  H   -1.55653818539405     13.27996921761848     12.54577457143838
  C   -1.78371040186635     12.16401305239482     14.36490585807624
  H   -1.68114728856745     11.20440616012762     13.86775684402577
  N   -1.99254116446751     15.75404106237562     13.50522246598065
  N   -1.43999203407649     15.71767608609162     12.37259763778576
  N   -2.82671038000282     17.54521208385034     11.79818059829926
  C   -1.72337378414634     16.83678987031544     11.55780160025127
  C   -0.86115080963749     17.10657960105318     10.49430202734281
  H   0.00959461912062     16.48282067551063     10.33103678500517
  C   -1.16007842520916     18.19665710504119      9.68757134072746
  H   -0.50949231319727     18.46128305745133      8.86093554874928
  C   -2.30316316740580     18.94613550371774      9.93977425713056
  H   -2.53788742598608     19.79607878427826      9.31164583713302
  C   -3.13253252550521     18.58117825508236     11.00839101535526
  N   -4.93873316715470     18.94000136627749     12.53764348032445
  C   -4.38473095195495     19.29618086143667     11.36277649306771
  C   -4.95873734621251     20.26503864775074     10.53795131044580
  H   -4.51245026557504     20.52819860098007      9.58681186196420
  C   -6.13207188036625     20.88725835267258     10.94450898547638
  H   -6.59516696596374     21.64257720022686     10.31875714430004
  C   -6.70124765918982     20.52270074263126     12.15720130267080
  H   -7.61703276103102     20.98215290719906     12.51105671104753
  C   -6.06626716970703     19.54288613561543     12.91417304547380
  H   -6.48500670517267     19.22852428397715     13.86890610257914
  C   -5.16656331320725     11.72389780667362     13.11336961259125
  C   -5.30889314194015     14.40850793955359     13.95147784951205
  C   -4.98446862952370     12.77685378849279     12.19988261394914
  H   -4.78637546594453     12.55911372836465     11.15598692247891
  C   -5.02812747260937     14.09849991079539     12.61493029982768
  H   -4.85021881842515     14.90940211880423     11.91458194962893
  C   -5.55939098048197     13.37129067078409     14.86091650778700
  H   -5.75018240589545     13.61077593356261     15.90000236465074
  C   -5.48004330823406     12.06033611886378     14.44588974903866
  H   -5.60276933311067     11.27895257326026     15.18693497542999
  N   -5.21917911351335     15.75527927894909     14.34543324597996
  N   -5.78386462311243     16.01193931347766     15.44380541764986
  N   -4.48252623004712     17.99203559225082     15.49656695960787
  C   -5.54563689276721     17.31497445135876     15.93173754750016
  C   -6.41947995750784     17.80951599085786     16.90145785822990
  H   -7.25473091966835     17.20530536250974     17.23495113618334
  C   -6.18006407962797     19.08638623353231     17.39155637420436
  H   -6.84260443634348     19.52373494609887     18.13071133985443
  C   -5.07990084459106     19.80163631049311     16.93377733477229
  H   -4.89025484482967     20.79750295407951     17.31346541433220
  C   -4.23334711287993     19.21292506299863     15.98453658442639
  N   -2.44177011192381     19.25367407279169     14.39698028412086
  C   -3.02175556712180     19.87710510724312     15.44043125097853
  C   -2.50750820484486     21.06049947922146     15.97284971944882
  H   -2.97276107496480     21.54273514366884     16.82365371872553
  C   -1.36901990931877     21.61699733358613     15.40477276172389
  H   -0.95311446849434     22.53626030203687     15.80288420415232
  C   -0.77248501661636     20.97557409952515     14.32759733765266
  H   0.11819311966524     21.37438610297102     13.85580552122605
  C   -1.34702086387876     19.79614864769200     13.86404372257106
  H   -0.90570544880731     19.26244481068373     13.02378171879021
  Li  -3.64899903803417     17.54162100893745     13.67692765847416
  C   -8.86926759873130      8.50529261877928     16.38283477979486
  C   -9.98920029861590      8.85714862487263     17.15032960943294
  H   -9.93881985879054      8.79231942214234     18.23277141470655
  C   -11.18560070771404      9.20113915767281     16.53640411449164
  H   -12.07546062037183      9.41163319161613     17.12218034220841
  C   -11.26454208198675      9.26373947321630     15.13988278307837
  C   -10.13470643476019      8.96897044687666     14.36421416673635
  H   -10.20928654249575      9.00390268790356     13.28395289256355
  C   -8.96803648661692      8.57626837903132     14.98139964041478
  H   -8.11484024778431      8.29823043353937     14.37073125033495
  N   -12.52366593381778      9.49911902264492     14.55957603028541
  N   -12.47990499399233      9.91444999161708     13.37045224197517
  N   -14.71243140783778      9.15911535172989     13.17279045987615
  C   -13.73628367011043      9.94880272298979     12.72510218681647
  C   -13.87144785147692     10.76632506172010     11.60235584044311
  H   -13.03613603756913     11.37003855511626     11.26795917176634
  C   -15.10394953212208     10.77810946259709     10.96238045791666
  H   -15.26660511866262     11.41247819175523     10.09769561659715
  C   -16.12971032320579      9.96559810664249     11.43139436138767
  H   -17.09100823575980      9.97182773411513     10.93374716130897
  C   -15.89412597209316      9.14835276837461     12.54511506145901
  N   -16.57423012795986      7.67459458132304     14.30458423827272
  C   -16.90753011152777      8.22987274451028     13.12367363860196
  C   -18.12007866051433      7.95043908088872     12.49102819437936
  H   -18.36765418394428      8.39124353325672     11.53320457490220
  C   -19.01354719687908      7.07920642503871     13.10068482848807
  H   -19.96116775329164      6.84765273242311     12.62644706847027
  C   -18.67080195327205      6.50847365944715     14.31911653478635
  H   -19.33774899026476      5.82190602408350     14.82782029969379
  C   -17.43921637219006      6.83760493734449     14.87697347608249
  H   -17.13398693402917      6.40736011645525     15.82951239148291
  C   -9.79162668576485      5.22731268952620     14.04123203032258
  C   -12.23848125556099      5.99070915472552     15.20423942051124
  C   -10.85791750558026      5.68194846652795     13.24608704688802
  H   -10.74235362418722      5.74083969846068     12.16911537325207
  C   -12.05591115726450      6.07979735580257     13.81835308521684
  H   -12.86581046059059      6.46689328117691     13.20682071527819
  C   -11.20751025241382      5.47759705808672     16.00389501865433
  H   -11.34119487173258      5.43365579062635     17.07806078585162
  C   -10.01054188044256      5.11152277920649     15.42878203160999
  H   -9.20431342304656      4.79100533540815     16.07895217369016
  N   -13.41875920688712      6.52940571858271     15.74567011379211
  N   -13.66883255064230      6.15558711107922     16.92425478457380
  N   -15.11504875441932      8.02671876901165     17.05925436949182
  C   -14.74516740102051      6.83673718009625     17.53350708935410
  C   -15.33598068551635      6.24528817452485     18.65116041466694
  H   -14.98022148699868      5.28585504403987     19.00735714799249
  C   -16.38578290874461      6.92295319324908     19.25702967570835
  H   -16.89208039747164      6.49505256026598     20.11561495781357
  C   -16.78314819871467      8.15882788468114     18.76047696110269
  H   -17.60184539150884      8.68914308360837     19.22983683749194
  C   -16.10969509511794      8.69496059590826     17.65432041159724
  N   -15.82548292333124     10.27580118836419     15.87923433645649
  C   -16.43594345665301     10.01190781907956     17.05032110555418
  C   -17.30651784494996     10.92240512369543     17.65173063027109
  H   -17.77702034609883     10.70532103841244     18.60277685297584
  C   -17.55769024004417     12.13348675072821     17.01992070274683
  H   -18.23081246828126     12.85524661952407     17.46989842117808
  C   -16.93040754999256     12.40428148727343     15.81131085804307
  H   -17.09689632490789     13.33765951712223     15.28592313040021
  C   -16.07244389728585     11.44323343751200     15.28550799763065
  H   -15.55959717902755     11.62174809452250     14.34163031329643
  Li  -14.69663662395878      8.51888540474964     15.11744885713602
