425
Coordinates from ORCA-job ORCA
  C   -3.54624732352675      6.22644956051383     12.38052425861676
  C   -4.25130646799763      4.99150441661640     12.54881081078233
  C   -3.30209449145616      3.97332025786785     12.63212279292022
  N   -2.04156888105291      4.55532434079280     12.50338867684222
  C   -2.18296257379617      5.93584136568311     12.36667488541868
  C   -4.10871107696006      7.58443458730196     12.41835099196513
  C   -3.66402081233714      8.60682868402493     11.56925705348090
  H   -2.96854414206114      8.37015149407088     10.77043172309916
  C   -4.04358788783110      9.92671348818078     11.77748356258585
  H   -3.61716460908031     10.69645116762925     11.14282718665430
  C   -4.90350622027843     10.28378283991406     12.82909970624371
  C   -5.42267030629252      9.23966010547503     13.61356429075937
  H   -6.11300895868310      9.45817067239285     14.42140185026126
  C   -5.03001527183725      7.92749808788856     13.41913801457302
  H   -5.40659932244820      7.16033544494903     14.08606126627522
  C   -5.69845078839501      4.87397054271905     12.78403424524648
  C   -6.62894033459598      5.58813049345469     12.01677526509161
  H   -6.28634855978974      6.15070785398443     11.15440146147456
  C   -7.96824400304478      5.64413132405547     12.38105660860931
  H   -8.63948533142341      6.26914177944457     11.80132600414403
  C   -8.44386089750632      4.97497909375712     13.51994848197870
  C   -7.52303461630816      4.18590263846261     14.23007344512038
  H   -7.84860432376436      3.63122094058982     15.10363122092446
  C   -6.18515017995054      4.14650360463748     13.88038961990928
  H   -5.49555279034288      3.57997370737538     14.49659512084614
  C   -3.53879119334362      2.57472079127936     12.99768869893878
  C   -4.58753689906746      1.85450313486466     12.40675779155102
  H   -5.12532516886337      2.29142138461549     11.57199357558062
  C   -4.99379727254414      0.62939819896894     12.91686408591764
  H   -5.85624080432920      0.14391253846300     12.47277509689322
  C   -4.35897451743492      0.05267032104728     14.02896907896102
  C   -3.24795627842950      0.73526934234359     14.55341346294606
  H   -2.70898160397820      0.32221858524750     15.39862680569764
  C   -2.85443253488624      1.96694864419225     14.06250872930694
  H   -2.03584960886390      2.48487279480653     14.54918610461344
  C   -0.81998489580502      3.87306163697224     12.77456576703275
  C   -0.50321716328583      2.67403656286179     12.13851015605667
  H   -1.14941863993877      2.28973628433370     11.35688539377241
  C   0.59778427725733      1.93459287241746     12.55832829742918
  H   0.77190251249134      0.96963147538284     12.09580348407040
  C   1.43612124123643      2.38140233924395     13.59320153493562
  C   1.14722701250877      3.64127693361949     14.14549324740169
  H   1.76884685508060      4.05312949396909     14.93175092978157
  C   0.03194787729945      4.36244027157149     13.76456126252240
  H   -0.19387286181966      5.30017756715480     14.25568129845079
  C   -1.04587751449005      6.85704748204604     12.41351711213533
  C   0.15375149877468      6.65217736595192     11.71671636014826
  H   0.23506988062970      5.82726522107665     11.01644000019299
  C   1.26268026235860      7.45600831625014     11.95244937981397
  H   2.19039959631168      7.21989077019310     11.44201290776078
  C   1.22069949596460      8.51174754217658     12.87819538482731
  C   -0.01285745473011      8.76382887935634     13.50357174568986
  H   -0.10879298320306      9.58071025393596     14.21019172696441
  C   -1.11031026973117      7.95423334289448     13.28720192173317
  H   -2.02387819594998      8.14459047315227     13.83799899378880
  N   -1.69961343463672      6.16292016918513     18.37225912211996
  C   -2.24281753408422      4.89090045823252     18.53814365261996
  C   -3.62410680001971      5.01056145989613     18.50631561442722
  C   -3.93350431649613      6.39110887890705     18.29409924845968
  C   -2.73184359955161      7.07986860717359     18.19779939314922
  C   -0.35179059951202      6.38849439636026     17.95867838073406
  C   -0.12564788157673      6.78128693679332     16.64035469044682
  H   -0.96822213300061      6.97436584284835     15.98499830964299
  C   1.16677830067732      6.91022167194395     16.16981415709190
  H   1.32547772369422      7.21337683640424     15.14149032115065
  C   2.27097917085817      6.67422513542275     17.00173668630361
  C   2.02880620970333      6.30590899321350     18.33140754258698
  H   2.86359221460614      6.10550516197686     18.99574762688465
  C   0.72714807782242      6.15427467022937     18.80662413897408
  H   0.54719064567432      5.84009427996639     19.82937421321320
  C   -1.46099565240032      3.65502464616189     18.38136150735676
  C   -1.43176300346412      2.63017454518173     19.33317805712529
  H   -1.91272369603343      2.78383560910414     20.29384581265230
  C   -0.81367077826237      1.41159313372579     19.05404353805203
  H   -0.81612911642824      0.62773428326188     19.80547670912508
  C   -0.24130195465264      1.16948644809189     17.79908687319740
  C   -0.27611116329650      2.20222185416243     16.85155399254666
  H   0.16354321945340      2.04322299628258     15.87484415350550
  C   -0.85139335783100      3.42214482489048     17.14170599587714
  H   -0.87118779284133      4.19634296099059     16.38233577666060
  C   -4.57668185603155      3.89635459559705     18.35466254224309
  C   -4.41466747396429      3.05578838010997     17.24602257877761
  H   -3.55319435593703      3.18974179672255     16.59969930516956
  C   -5.35801997093788      2.09640871943264     16.93547107491048
  H   -5.21753780642703      1.47887777441670     16.05657848327851
  C   -6.48621743942892      1.89974294878491     17.74337375787054
  C   -6.63175206233346      2.70991965245281     18.87705919053881
  H   -7.50204774658685      2.58946913191302     19.51539068841973
  C   -5.70141533347213      3.70716425242378     19.16492863622650
  H   -5.85570169778593      4.35721716391954     20.02045503945989
  C   -5.24831283981503      6.93445051997422     17.91922211251626
  C   -5.83658373356750      8.05450055058085     18.51791423101841
  H   -5.34922444574697      8.51873250755642     19.36961285554959
  C   -7.02612369263282      8.58790774105641     18.02589483856233
  H   -7.45679590366271      9.46356295720789     18.50272549477252
  C   -7.64362831789327      8.03840915074868     16.89491231040149
  C   -7.05148493716664      6.91383078615935     16.30435810023017
  H   -7.51412808534500      6.46260178778678     15.43496286964528
  C   -5.89552594817994      6.35916518903849     16.81768813918572
  H   -5.46175681652009      5.48810619042850     16.33675695213651
  C   -2.50730773646612      8.43631565859626     17.68365581147884
  C   -1.68547636356572      9.39794216081715     18.28444493072232
  H   -1.20607985448190      9.17584280990944     19.23286459376409
  C   -1.47715313245331     10.63623541899894     17.68004276231800
  H   -0.83559851106415     11.36594527732874     18.16519270589423
  C   -2.05264228015321     10.93453365549344     16.43765938910190
  C   -2.86643597658292      9.96249092812472     15.83985410223630
  H   -3.33071075012028     10.17063601221663     14.88338828183273
  C   -3.10675226423392      8.75144819431780     16.45639853858030
  H   -3.74829455557739      8.02194913156442     15.97251511319678
  C   -4.91357966127345     -1.12825714014495     14.71641042070132
  C   -5.76508278251750     -2.04700392264383     14.07797175611016
  H   -5.92644619211891     -1.98253968717900     13.00739482196072
  C   -6.42427496835318     -3.03060303693865     14.79846033328887
  H   -7.10966203555891     -3.71664660875904     14.30927635184826
  C   -6.21377846126676     -3.15345010784781     16.17728995937368
  C   -5.32257109982580     -2.28243344576102     16.81890594767145
  H   -5.18258200727801     -2.36052281147958     17.89025576944743
  C   -4.69431774225546     -1.29000779688406     16.09922961721620
  H   -4.07200454510270     -0.58399738047929     16.63692694063725
  N   -6.99324100880341     -4.08943886488344     16.88051415957488
  N   -6.54222519847750     -4.38613254189984     18.02017888762174
  N   -8.71141386354781     -5.20327365198985     18.51280121906077
  C   -7.40962360840396     -5.18228298629864     18.80016639224305
  C   -6.85642423066929     -5.87060174656560     19.88092415526581
  H   -5.79416071933162     -5.79837450973079     20.08159508689330
  C   -7.71094645918709     -6.64462759198163     20.65490015824457
  H   -7.32612362610755     -7.21564101630042     21.49302159977891
  C   -9.06700842752161     -6.67990512040445     20.35341776117601
  H   -9.73594624435340     -7.28307243350653     20.95380098991596
  C   -9.54282922328176     -5.92752482556800     19.27081643409386
  N   -11.21940915461600     -5.26798414557438     17.69417671028825
  C   -10.97168546877290     -5.87684379929732     18.86965641911603
  C   -11.99430310064163     -6.41258509394588     19.65442688838321
  H   -11.78376122356436     -6.88324371262337     20.60686909835729
  C   -13.30572395771620     -6.32361544209954     19.20604428605916
  H   -14.11538672449932     -6.73321383454133     19.80034829676779
  C   -13.56067648210568     -5.69877094001517     17.99279209355127
  H   -14.56940902921146     -5.60578020902650     17.60706683104150
  C   -12.48282841912366     -5.18595891312785     17.27752924875616
  H   -12.64413142746197     -4.68523337263925     16.32421505389488
  C   -7.45006057461436      0.85981350252320     17.33990171063600
  C   -9.05285762082503     -1.25304370613780     16.42801124299579
  C   -7.99912703843197     -0.06038748902447     18.24535926454600
  H   -7.76327468899370      0.02222711357422     19.30168535737981
  C   -8.76408789410228     -1.12645036025111     17.79238807038277
  H   -9.13694560989502     -1.87955555393171     18.48027629835164
  C   -8.56012960709218     -0.30450420699804     15.52091532553247
  H   -8.77552580655399     -0.41786066537211     14.46514168644700
  C   -7.75625500744305      0.71735773117378     15.97408425616495
  H   -7.33712067014215      1.41617524423594     15.25752876290549
  N   -9.72903434391920     -2.40835305172221     15.99905081224444
  N   -10.28882619238042     -2.29728569318801     14.87493684781353
  N   -10.24655901376406     -4.65906240707929     14.77665253243625
  C   -10.78320248874743     -3.51426397671216     14.35473143580810
  C   -11.77000799881161     -3.45225502238527     13.37002500316713
  H   -12.15401354785383     -2.49188015832846     13.04726429661287
  C   -12.23406179974537     -4.65386705631343     12.85121842137930
  H   -13.01605877809391     -4.66061377434466     12.09953591478751
  C   -11.68673177757689     -5.85205148467603     13.29548275490754
  H   -12.04720237248848     -6.79003651467944     12.89278959332034
  C   -10.67270588707084     -5.81830330893813     14.26173903631425
  N   -9.21076855638475     -6.82359708645147     15.86861934663076
  C   -10.00545469130127     -7.03027344819445     14.80087149060171
  C   -10.17821352507284     -8.29749585062266     14.24189199414934
  H   -10.80544431787307     -8.44588649527856     13.37146798505764
  C   -9.51832678792672     -9.38018338506500     14.80865074091214
  H   -9.63817477630607    -10.37358533067413     14.38994433665315
  C   -8.70212669380206     -9.16793996680403     15.91158089700607
  H   -8.16782253297140     -9.98455623695292     16.38338783908056
  C   -8.58079829267509     -7.87086448170135     16.40058329478486
  H   -7.94681487847426     -7.66460749886496     17.26151952022902
  Li  -9.35334968902473     -4.74290120946301     16.62163804306030
  C   2.48986960938215      1.52952904758121     14.18339865540385
  C   3.01158240973864      0.39952892600091     13.52911495277967
  H   2.73603247203176      0.18989273489481     12.50157629036532
  C   3.86858328814581     -0.47524327959431     14.18039651690777
  H   4.24125815841730     -1.36497882483620     13.68145624018175
  C   4.27219746173211     -0.21648310537123     15.49540564563933
  C   3.80264668399793      0.93242256299062     16.14481991688855
  H   4.09004687942820      1.11640594290566     17.17285548983018
  C   2.92524233538986      1.77672179525508     15.50074149964296
  H   2.52657279100744      2.61403009535213     16.06065419533396
  N   5.06211353109882     -1.18051467924670     16.15130236799099
  N   5.67662052902467     -0.73793122003796     17.15870228562074
  N   5.92924455494166     -2.99462100933362     17.84130724167879
  C   6.32699138461695     -1.72533668786807     17.93167033649316
  C   7.32738005305313     -1.29967239973439     18.80668906723473
  H   7.59330681947015     -0.25045420929467     18.85463453774884
  C   7.95795176991390     -2.26536312364731     19.58031644984632
  H   8.75669482070310     -1.98865333627054     20.26001591021516
  C   7.55444261904599     -3.59146491694858     19.48449952745182
  H   8.04363469705202     -4.34727166437924     20.08558474369843
  C   6.51513484332848     -3.92478859943152     18.60497910308180
  N   5.14568572937197     -5.47767571672737     17.40408205895573
  C   5.99313513370879     -5.30443419537504     18.43623604276775
  C   6.34324460750806     -6.35252723539727     19.28908760412351
  H   7.00993438616000     -6.19583934053349     20.12818320671912
  C   5.80957841688100     -7.61429856161317     19.06088035643345
  H   6.06780481893697     -8.44266554890054     19.71173636027038
  C   4.93941352707920     -7.79376509734332     17.99407981631531
  H   4.49932221318039     -8.76133625841005     17.78173755108952
  C   4.63839429725694     -6.69283204579486     17.19814129104462
  H   3.95691010994959     -6.79338042395466     16.35496387935956
  C   0.38807062335119     -0.10316536956804     17.40082520451149
  C   1.75859182094155     -2.35065101203602     16.43280393743401
  C   1.27364127698804     -0.80847188203403     18.22881324101689
  H   1.46352284927055     -0.45297688034470     19.23674011014470
  C   1.97745807756353     -1.90157978819519     17.74096199469598
  H   2.71321647678535     -2.41233431289797     18.35515134795177
  C   0.82854157700810     -1.69160319813540     15.61694984694677
  H   0.67249247223763     -2.03779505346436     14.60221179037842
  C   0.17501100352101     -0.57778846115959     16.09347385791477
  H   -0.50668661765008     -0.04674472039054     15.43753544586890
  N   2.58000418475437     -3.37931643111275     15.93836531617938
  N   2.11022310014452     -3.98500985645922     14.93749923672198
  N   4.32908031684789     -4.66678828932761     14.49044649679635
  C   3.02300937628314     -4.86756432754744     14.31750567145447
  C   2.50839353685764     -5.87221259023609     13.49727817202994
  H   1.43701208762137     -5.97599570047163     13.37353526618534
  C   3.41665250798150     -6.72043188859584     12.87696402740433
  H   3.06706884842786     -7.53033524588847     12.24572872858495
  C   4.78007474156250     -6.52392354990745     13.06353713236673
  H   5.48922324447324     -7.18404304509342     12.58052611596059
  C   5.20884576088302     -5.46689514176643     13.87746551171367
  N   6.85519196554245     -4.23330047009650     15.10168911379765
  C   6.63593030992628     -5.15279877103297     14.14181063965831
  C   7.68271140962599     -5.75877334619325     13.44528873698815
  H   7.49123204619315     -6.48435209991864     12.66429499964569
  C   8.99064947239399     -5.40986548941204     13.75590202453483
  H   9.81903042082783     -5.86846674585786     13.22681258258612
  C   9.21692691398361     -4.46441831028241     14.74705078370829
  H   10.22162593816121     -4.16232173870893     15.01953867541094
  C   8.11514208539894     -3.90551775465098     15.38735788762199
  H   8.25325206970436     -3.15867090275924     16.16765450558973
  Li  4.98780114906972     -3.66839779759759     16.15015364761400
  C   3.62076371634289      6.83269274275831     16.42738128815218
  C   4.65821611030428      7.48597026077585     17.10835752064825
  H   4.49597089873582      7.83917425918549     18.12186467203392
  C   5.85625989979553      7.76849625956171     16.46659001697133
  H   6.63840496139595      8.33331927509002     16.96518717105457
  C   6.06153491047304      7.34727193745305     15.14755937686492
  C   5.05494848344189      6.63761863778289     14.47845070803094
  H   5.21662017352974      6.32672036539636     13.45320416020463
  C   3.85224221324845      6.40406010851103     15.10814814941538
  H   3.06267581864647      5.89602982952444     14.56385179545711
  N   7.23363034257480      7.77194969341858     14.49454600700687
  N   7.54207170153376      7.09064009978285     13.48085275075197
  N   8.83590105424989      8.95113007512832     12.80465376316977
  C   8.59146023289223      7.64426849930253     12.71199496744827
  C   9.27894485952540      6.79924851008034     11.84040070533919
  H   9.02204738828440      5.74792218282966     11.78857496936158
  C   10.29394917745437      7.35780427557935     11.07389361975943
  H   10.87272898869483      6.73942534050987     10.39627466428056
  C   10.56128829682218      8.71802180001205     11.17377606973307
  H   11.35125034829657      9.15655231060400     10.57748344077951
  C   9.79558013336161      9.49884221628930     12.05044070528400
  N   9.30161182706643     11.50612625757256     13.25641001768502
  C   9.98070979311581     10.96124864071173     12.22880112975474
  C   10.79277826450256     11.72640361922945     11.39031464843329
  H   11.32015416849048     11.27846120546916     10.55705115298363
  C   10.91024477778962     13.09010622712145     11.62645805634422
  H   11.53534843104867     13.70365438327276     10.98674742811749
  C   10.21199165046189     13.65151426647153     12.68700302518658
  H   10.27395458087553     14.71153875459677     12.90493128426155
  C   9.42086532878550     12.81634007016403     13.46983676587124
  H   8.85638150962084     13.22060119940964     14.30861481421349
  C   2.43080306260011      9.24368414782574     13.29330272425944
  C   4.79527918381279     10.41237869331832     14.27866295647681
  C   3.58729539961756      9.31723904253742     12.49710529628293
  H   3.57261906356567      8.92875111576303     11.48462912765259
  C   4.75967453465692      9.87027026405238     12.98797518445401
  H   5.66077794797546      9.89749395123898     12.38231626299813
  C   3.63646493584851     10.39193797483215     15.06715987547086
  H   3.67512249401757     10.78347575513028     16.07644687901434
  C   2.48612196865903      9.81037263619017     14.58281903700221
  H   1.62978259845958      9.74117887458031     15.24369132967129
  N   6.03167335971263     10.86768758574434     14.76953220544586
  N   5.93982982669469     11.63570161665412     15.76615782157029
  N   8.22204752684686     11.15179655520233     16.17957784114313
  C   7.17419399679687     11.95324356311107     16.37320528206581
  C   7.21640815645033     13.07658932247818     17.20059374316334
  H   6.32697694590378     13.67947525844628     17.33953335922992
  C   8.42785476915205     13.38361982160461     17.80597174605474
  H   8.51785894820287     14.25855822732646     18.44075819846258
  C   9.52716091563567     12.55897592408990     17.59819683969046
  H   10.47352566999762     12.79650657550538     18.06700599806810
  C   9.38508997948634     11.42999210514332     16.78022300942587
  N   10.23139797640601      9.56837317442339     15.53610881058245
  C   10.48544173450972     10.47290357571207     16.50106622484387
  C   11.69865197639329     10.49697073925067     17.19107603400136
  H   11.88281957177777     11.21822904120645     17.97780453543950
  C   12.67707383921623      9.56600577077778     16.86747322688042
  H   13.62689477112178      9.56682544973322     17.39127033186929
  C   12.41641752580224      8.63538098158418     15.87063269528872
  H   13.15148804722894      7.89045114963547     15.58829374023868
  C   11.17782621302587      8.67824637300652     15.23804882810647
  H   10.93558153333744      7.96296191861083     14.45365954371528
  Li  8.31090916518035      9.96751167166108     14.51042757185472
  C   -1.86824518160010     12.20923865890265     15.72054669139346
  C   -1.96836898584263     13.45576279833086     16.35597628860878
  H   -2.11416199851858     13.49927815440541     17.43076746199240
  C   -1.98090970345433     14.62749573734749     15.61215127694262
  H   -2.12797718633045     15.59186324408171     16.08938903302469
  C   -1.82425978005440     14.57749113838635     14.22163751800242
  C   -1.65769421527755     13.34088648807509     13.58285802789839
  H   -1.55171424065288     13.31007740075583     12.50502461744632
  C   -1.70124702292751     12.18113256918386     14.32377566763247
  H   -1.62486950041765     11.22591560330439     13.81442763086523
  N   -1.97088416051281     15.77351729010979     13.49764878448001
  N   -1.46261979398139     15.75098761620512     12.34427603309126
  N   -2.90023227431070     17.55724205624668     11.83212443731363
  C   -1.79436780344416     16.86961253055221     11.54731705224505
  C   -0.97653398905690     17.15987484881508     10.45457869000621
  H   -0.10201624756813     16.55200051612197     10.25550255662304
  C   -1.32309744595883     18.24931113899517      9.66625831190294
  H   -0.70778927403221     18.52972046678970      8.81809249515237
  C   -2.46871102413669     18.97759024221816      9.96472913554172
  H   -2.74057699714440     19.82707830830369      9.35112022174189
  C   -3.25232257207328     18.59218461686392     11.06034904163490
  N   -5.00589314713307     18.91332871674570     12.65751386364036
  C   -4.50289453672394     19.28325284801362     11.46414162526352
  C   -5.12498723979746     20.24377397134485     10.66483743568968
  H   -4.71967330260768     20.51741228020266      9.69842153157359
  C   -6.29337901814687     20.84318145970602     11.11730240264174
  H   -6.79346121426697     21.59153682964038     10.51198746267229
  C   -6.80992298900390     20.46461097343943     12.34910589453509
  H   -7.72008534722913     20.90599658783223     12.73865417566565
  C   -6.12936590721256     19.49423256489118     13.07814390872413
  H   -6.50636511126217     19.16933703273514     14.04663630506741
  C   -5.13692782324413     11.69262695971708     13.19709341993308
  C   -5.25522099152093     14.37184686100062     14.05674074562490
  C   -4.97768660190196     12.75192136115770     12.28639664234273
  H   -4.80957347353423     12.54127360845196     11.23580041190936
  C   -5.01301791686832     14.07098611954560     12.71060532428661
  H   -4.85545191069946     14.88658848362381     12.01082505996436
  C   -5.47624496780772     13.32823751294906     14.96666324925459
  H   -5.63986121514800     13.56066627287021     16.01196797950455
  C   -5.41062195343337     12.02003282569623     14.54056664151050
  H   -5.50980772767555     11.23370653100853     15.27998661907555
  N   -5.16802684582527     15.71761646755849     14.45531024581407
  N   -5.69992645793460     15.96111147624702     15.57283984269290
  N   -4.42591500827958     17.95961967048696     15.59299250639682
  C   -5.46432605539086     17.26513489224146     16.05939549267068
  C   -6.31311248513401     17.74267150095913     17.05945152335318
  H   -7.12821144888222     17.12496919666622     17.41722777705737
  C   -6.07645784893211     19.02083081457855     17.54744034380702
  H   -6.72091046326957     19.44519857508742     18.30979326412691
  C   -5.00280218413134     19.75448286562558     17.05693758231038
  H   -4.81580868678284     20.75180326727209     17.43418086985602
  C   -4.17937899943533     19.18235172081810     16.07780661339890
  N   -2.44730918289522     19.26025955040152     14.42698312980899
  C   -2.99781823079443     19.86777669775669     15.49548537753065
  C   -2.48180545544905     21.05494160684168     16.01766607611636
  H   -2.92266842085006     21.52399314946671     16.88860645808218
  C   -1.37326922935864     21.63238517734027     15.41247212132268
  H   -0.95662301230651     22.55501664574518     15.80192970100218
  C   -0.80743387276377     21.00760735963710     14.30924355628692
  H   0.05913853078742     21.42319851314088     13.80795291017864
  C   -1.38104309736806     19.82286089602476     13.85829507701641
  H   -0.96312167872963     19.30175001677937     12.99837543737802
  Li  -3.65138913047983     17.53311078279982     13.74122237971246
  C   -8.87669680452122      8.56964605996344     16.28674872890757
  C   -9.99653289286823      8.94150740463784     17.04563046481030
  H   -9.94569017771956      8.90187011172356     18.12919146467965
  C   -11.19399324482436      9.26706457849230     16.42408168419868
  H   -12.08440820672068      9.48925587363759     17.00479627955319
  C   -11.27429604987049      9.29331803129996     15.02624214096365
  C   -10.14318368007648      8.98483186595614     14.25750346494293
  H   -10.21822855968884      8.99353264165053     13.17671475410224
  C   -8.97562445985117      8.60977574544821     14.88368199331926
  H   -8.12117277324480      8.32081663235038     14.27990449572568
  N   -12.53453824811336      9.50668998977512     14.44160657705423
  N   -12.49513280204793      9.88446600417567     13.23932389267848
  N   -14.72368593179083      9.11113343867259     13.06899441397670
  C   -13.75307342087871      9.89350192811137     12.59674153650391
  C   -13.89618599018671     10.67825543209277     11.45162393118932
  H   -13.06535270630378     11.27715452279161     11.09804426353827
  C   -15.13024944098134     10.66504493595900     10.81495944599898
  H   -15.29877537046472     11.27419415323511      9.93340828324947
  C   -16.15042420498569      9.86050892871696     11.30955277576905
  H   -17.11335234904076      9.84781488303003     10.81513521022286
  C   -15.90711256065742      9.07655356059156     12.44495435342442
  N   -16.57803911598240      7.65594198442215     14.25094877536003
  C   -16.91429430065648      8.17009241693426     13.05244559949537
  C   -18.12420963804305      7.86129925105280     12.42842368064773
  H   -18.37353722920460      8.26848887722236     11.45627647017641
  C   -19.01200212266155      7.00417904972703     13.06569781387572
  H   -19.95746951395989      6.75032164118594     12.59861053179148
  C   -18.66634079086323      6.47616484454167     14.30246797100679
  H   -19.32887756170582      5.80197730792693     14.83303510559525
  C   -17.43755417474437      6.83196853014272     14.84991032193748
  H   -17.13010306492002      6.43529590320113     15.81622701538000
  C   -9.79834873277403      5.21429802083420     14.05092372821156
  C   -12.24268183094778      6.01351766840734     15.19426429853850
  C   -10.86492506792460      5.64783211889436     13.24440369102119
  H   -10.74975268038608      5.67820274364687     12.16619183880171
  C   -12.06202933472081      6.06264233237431     13.80624461836586
  H   -12.87171982413128      6.43444311087966     13.18503329241376
  C   -11.21159890571295      5.52162734908370     16.00704734240797
  H   -11.34399115518337      5.50836531638311     17.08214735467596
  C   -10.01591019520849      5.13713040006773     15.44139087891046
  H   -9.20878162442940      4.83701852372600     16.09994970964413
  N   -13.42217565863825      6.56785759074278     15.72149151430787
  N   -13.66989116190205      6.22898783313296     16.91102019296226
  N   -15.11805133756179      8.10177768843417     16.99229333343963
  C   -14.74640090975016      6.92667710601566     17.50100237698099
  C   -15.33573941324872      6.36775761017155     18.63606365102582
  H   -14.97844807712253      5.41984746216044     19.02044206013461
  C   -16.38624040799214      7.06149933752028     19.22216938885819
  H   -16.89138238960601      6.65838121080391     20.09334061512844
  C   -16.78602888821742      8.28137877819627     18.68930757700149
  H   -17.60570239172388      8.82396790194166     19.14271437269760
  C   -16.11376905122273      8.78554496471823     17.56761455460631
  N   -15.83793909054840     10.30994070451306     15.74279516115896
  C   -16.44341619432293     10.08267104931518     16.92402721763243
  C   -17.31214363897737     11.01107161355026     17.50017731258071
  H   -17.77793902208372     10.82370909260641     18.45984431375442
  C   -17.56716061586486     12.20130307485727     16.83139890733861
  H   -18.23890934090504     12.93651757078160     17.26120908220925
  C   -16.94534894887399     12.43410813952766     15.61208172317696
  H   -17.11501672529208     13.35018077822449     15.05802976066931
  C   -16.08843981263415     11.45774825394709     15.11343227297177
  H   -15.57967627210697     11.60665967566217     14.16223582033538
  Li  -14.70474331879597      8.53422813093004     15.03431872074563
