425
Coordinates from ORCA-job ORCA
  C   -3.50987939634190     -2.15966162321114      3.06059322349385
  C   -4.29464907274035     -3.17346064714366      3.60412480685120
  N   -2.17886643750444     -2.52861219166510      3.21398166131480
  C   -2.10891570177620     -3.75617977787257      3.85984497046218
  C   -3.41152333620726     -4.18046428327509      4.10591603506757
  C   -4.56931258447703      1.73368165950922      1.60769817196685
  C   -3.64973051368613      0.93847892811357      0.90773088029040
  C   -5.19178874723813      1.17368534901418      2.73518269213862
  C   -4.86371058594031     -0.09358200137617      3.18099010183577
  C   -3.33176994147621     -0.33883337397586      1.34209144349987
  C   -3.90825622045775     -0.86774199968846      2.50647992051953
  C   0.11218297593238     -3.68332660215053      5.01552253734403
  C   -0.86671995565544     -4.38913489052752      4.29938246337956
  C   1.19608794895617     -4.34313326073100      5.56956420564479
  C   1.34749264064767     -5.73364566295874      5.44165903874147
  C   -0.68372525468538     -5.76720508789626      4.11296243254799
  C   0.39647637775900     -6.42544903160705      4.67603012127543
  C   -3.81422707415163     -5.38267228879896      4.84422235843892
  C   -3.20262369649378     -5.72166170567970      6.05992934166994
  C   -4.87437489663853     -6.18442588485404      4.39773248695957
  C   -5.34253579187927     -7.24216700554912      5.16113583422959
  C   -3.66387990001698     -6.78493507701761      6.81780958367869
  C   -4.76447695429022     -7.55214799783682      6.40138947338687
  C   -6.58419202465485     -2.72308618448936      2.68618250210178
  C   -7.94774103908834     -2.55849201243676      2.87339645445814
  C   -5.75423837087779     -3.13093364198981      3.73984564180694
  C   -6.35622634021951     -3.43640335903569      4.96863457594169
  C   -8.54469155952351     -2.81584642124545      4.11697976018736
  C   -7.72041124104038     -3.28924406553905      5.15018477954948
  C   0.15510021047395      0.34398235598488      3.24594385914569
  C   -0.99126066142954     -0.41070481622456      3.42839135876123
  C   1.27924868275022     -0.18544494484145      2.59336333493741
  C   1.18146972816659     -1.47849647510142      2.05942547910153
  C   -1.04865523903539     -1.71235735180455      2.93143126216300
  C   0.02709003391058     -2.23175007033432      2.21317584033215
  H   -3.19539212641313      1.31520845519483     -0.00274834020759
  H   -5.89875764812014      1.76257558071988      3.31075259119666
  H   -5.32601031568050     -0.48284693657862      4.08227640286699
  H   -2.62455159580721     -0.93460352381709      0.77455108986061
  H   0.00045476069026     -2.61616270531752      5.18119056055999
  H   1.90078609865743     -3.77381534255519      6.16824735206791
  H   -1.41044936945211     -6.32339404155601      3.53037577559053
  H   0.51501913688563     -7.48981443387023      4.50280795096458
  H   -2.37561593892953     -5.12288797514717      6.43003111825182
  H   -5.34034881931865     -5.96408284669215      3.44295703133022
  H   -6.15667708345651     -7.84959296084180      4.77958207550380
  H   -3.19909223068058     -6.98116136869470      7.77951261279025
  H   -6.14767233712472     -2.52355504852674      1.71304790412064
  H   -8.56368378765049     -2.25039428060852      2.03475244977346
  H   -5.73769494512157     -3.76116994363210      5.79915183155528
  H   -8.14267897825116     -3.49270612333994      6.12966845138315
  H   0.19393474551173      1.34031635220224      3.67498632565797
  H   -1.83389569743497     -0.00257319444854      3.97639929292019
  H   2.01158379637699     -1.89383362984733      1.49805187876803
  H   -0.03654110061394     -3.23068285694157      1.79598158293159
  C   -18.72489255072900     -0.54290114297815      1.67996947653627
  C   -18.48589958399586     -1.42867958376592      2.72183507206236
  C   -17.97294649114563      0.62174034622719      1.60475436920907
  C   -17.00398132035558      0.86798026613135      2.57890681409816
  N   -16.76538434813556      0.00588212366107      3.58550830434084
  C   -17.49530816355067     -1.10896792138734      3.64468143582386
  C   -16.15791415349213      2.08614115674742      2.56661270252201
  C   -16.46984405848702      3.22228746847461      1.80750637924433
  C   -15.61265849914277      4.31412296887703      1.84595409401347
  C   -14.26237888622812      3.10189924793128      3.39298005244539
  N   -15.07346768308975      2.04265998574449      3.34954861021889
  N   -13.10196152322686      3.07118085547622      4.19558746852117
  N   -13.08819515768076      2.15140504882095      5.05833716786158
  C   -11.87564973712226      2.02725614386050      5.75971025903308
  C   -11.77965313352649      0.92863387180321      6.62135786846866
  C   -10.76158268688684      2.86288918337061      5.57015244500720
  C   -9.56312164960314      2.54744270719678      6.17624676541737
  C   -10.56347600813067      0.59838511897285      7.19450912206468
  C   -9.42690354535412      1.38243875306657      6.95437150002125
  C   -14.47412513107624      4.25751099795498      2.63765923659282
  H   -19.48060686973310     -0.75622594428348      0.93170841321999
  H   -19.04787004384853     -2.35043707581313      2.81897396999784
  H   -18.13053463892927      1.31310168259269      0.78599680636513
  H   -17.27849178259600     -1.78405735776091      4.47007688198816
  H   -17.36807918288992      3.26098520215460      1.20448252519071
  H   -15.83424377697231      5.20142407355061      1.26274120841403
  H   -12.66461362755529      0.32590138449953      6.79347603744215
  H   -10.84791858804223      3.72576561416689      4.92121194087899
  H   -8.68975748422511      3.16835470263120      6.00143300068241
  H   -10.48512812641907     -0.27518980158007      7.83340910854350
  H   -13.76706010620457      5.07607989481437      2.70036460652197
  C   -18.44074079942242      3.58888200990511      7.49776166261747
  C   -17.61175114512487      4.23053324521724      6.58777288607274
  C   -18.31176856851382      2.21744882045241      7.67084647526501
  C   -17.35644049789360      1.52588459960145      6.92377107834431
  N   -16.54672279438201      2.14822851578210      6.04665967285350
  C   -16.68194007458029      3.46601532107718      5.89076745007701
  C   -17.15284753763934      0.06297595665940      7.05695727401682
  C   -18.09762557941639     -0.78166747168406      7.65545467621970
  C   -17.81939915937236     -2.13810529499459      7.75982965326748
  C   -15.75123040388157     -1.71838956388864      6.64860514118644
  N   -16.00662077331338     -0.41115206039603      6.55217982529245
  N   -14.53587904046696     -2.24149130004060      6.16096121283430
  N   -13.92510388689782     -1.49298702525787      5.35009133845669
  C   -12.64290791523201     -1.94826368504774      4.99286054928345
  C   -11.95250518551720     -1.19235506868004      4.03830190152218
  C   -12.00322608846290     -3.03903958102668      5.60547761155933
  C   -10.69357133185877     -3.33046867847136      5.29053387607694
  C   -10.63711766029804     -1.49393335564825      3.72717630822508
  C   -9.97085981637282     -2.55460996462605      4.36192200079786
  C   -16.61639764027931     -2.62362305210342      7.26802437521441
  H   -19.17340872923778      4.14648247276670      8.07112494752703
  H   -17.67628584958357      5.29974379397160      6.42199042570565
  H   -18.93461866463552      1.70516054878558      8.39389224771384
  H   -16.01343140735539      3.93800780523864      5.17361446790928
  H   -19.03719168827187     -0.39192287351066      8.02588055894993
  H   -18.53623030626768     -2.80761310342614      8.22292996539106
  H   -12.45617244508739     -0.34703870300584      3.57955370889907
  H   -12.54644207901260     -3.63431923020682      6.32935889812921
  H   -10.21344140901217     -4.18461403579123      5.75682382656848
  H   -10.10017687036942     -0.86762143969155      3.02302739558049
  H   -16.34019865624991     -3.66928570857093      7.33290457492394
  Li  -15.21914780233593      0.74838821843093      4.98566706311729
  C   -2.93678951528011      0.35561734738110      8.00683710781504
  C   -4.11189621386799     -0.29874432269606      8.36802451121379
  C   -1.84166847248217     -0.48546817470885      8.37994452281717
  C   -2.37430851259573     -1.63767530509934      8.95389226418427
  N   -3.75670342800941     -1.50770195123677      8.95339315024502
  C   -2.53570667939233      3.93984171197394      5.67884883699513
  C   -3.47928693833480      2.95992462734487      5.34266734325243
  C   -1.76129061523302      3.74898669107875      6.83063030090265
  C   -1.92345177151671      2.61539664197445      7.61566026996666
  C   -3.61683096909610      1.81479225992600      6.10893875413850
  C   -2.84020675276231      1.61640213800246      7.25921740336340
  C   -0.66056420670241     -3.36769577140412      8.58172198915921
  C   -1.67613703184672     -2.84512807822162      9.39619121122816
  C   0.04458321221576     -4.49587079506281      8.95745984427353
  C   -0.26489595011681     -5.17445026860274     10.14344497854039
  C   -1.97728960964173     -3.51665978433645     10.59065247723210
  C   -1.29659214026768     -4.67379720304283     10.94713236422124
  C   -4.66952976847511     -2.52499101371237      9.35328751244167
  C   -4.56485732270597     -3.79046772182360      8.77982980730414
  C   -5.67357018021256     -2.25657898784763     10.28140650477896
  C   -6.58412794438219     -3.25180767894021     10.61709322357054
  C   -5.44855568828707     -4.78990282434230      9.15063040940217
  C   -6.47693432146101     -4.53403815096598     10.06636016664577
  C   -6.42135189385848     -0.79002441417432      7.54751416005375
  C   -7.70128873825303     -0.37374326749963      7.22412286822475
  C   -5.49484334400458      0.10156078614093      8.10932745485980
  C   -5.90362159389119      1.42464951603866      8.33657063614810
  C   -8.09773541270227      0.95569275074032      7.41839468949007
  C   -7.17548880977081      1.84833559397664      7.98121959074925
  C   1.33075612973917      0.41063086421407      6.56810896575742
  C   -0.00946477942021      0.22857338714833      6.86185501396106
  C   2.32158506220148      0.10003213748825      7.50779096739055
  C   1.91978817287994     -0.36443486199023      8.76709836864518
  C   -0.41806305451809     -0.24024436681464      8.11795995623668
  C   0.57347834365305     -0.51018600129562      9.07259266909115
  H   -4.05995529967205      3.07339579322850      4.43215705032066
  H   -1.04552538978558      4.50949325952795      7.12793171976179
  H   -1.32447082440339      2.49148241258591      8.51189431000508
  H   -4.31509377871019      1.04349911255469      5.80271245697171
  H   -0.43631939683010     -2.88726224980879      7.63693357854019
  H   0.81040465030684     -4.89740687816465      8.30074709401613
  H   -2.74460337648987     -3.12487192218899     11.25013497809906
  H   -1.53831373315568     -5.17078917681235     11.88176733752266
  H   -3.80075591042388     -3.98445571008298      8.03614751428953
  H   -5.74451203103859     -1.27093554327255     10.72859913289261
  H   -7.36542100379707     -3.04069453176870     11.34050644631523
  H   -5.37664878134653     -5.76857889027202      8.68599307840170
  H   -6.12492211986023     -1.80879029060297      7.32723144442059
  H   -8.38763261090908     -1.06751186959792      6.74841629145987
  H   -5.20871718136727      2.12381341902145      8.78936365920869
  H   -7.46966379755657      2.87613221080785      8.17063296856137
  H   1.62806764408267      0.73744512588775      5.57640224313896
  H   -0.75609368625175      0.42699125722863      6.10239149417431
  H   2.66817178618152     -0.58003989637566      9.52385649692008
  H   0.28066327930558     -0.84692917904968     10.06158410197754
  C   -4.44658398054084     10.50537925810099     -4.41286837971609
  C   -5.57247259740952     10.29730760867703     -3.62795982782538
  C   -3.19231374150143     10.30483517844056     -3.85240611018918
  C   -3.10136194498615      9.90400391728800     -2.51829979560093
  N   -4.19282791412518      9.69309989641621     -1.75843547490073
  C   -5.39097981113305      9.88977463663538     -2.31030892866160
  C   -1.79995929200096      9.66834598065015     -1.84679964746862
  C   -0.58274769415018     10.13820644124058     -2.35865740649671
  C   0.58952899057886      9.86305082489541     -1.66696732893321
  C   -0.73036499030303      8.73981945111012     -0.02884800694008
  N   -1.85980359944885      8.98874498997795     -0.69530225326626
  N   -0.76536062770797      8.00341527937543      1.17495567359607
  N   -1.91209991518504      7.89424017664570      1.68849044740589
  C   -1.97206451760004      7.04230275679320      2.80600229964496
  C   -3.25359110547352      6.77231383123274      3.29966367508227
  C   -0.85919354536892      6.39527317862711      3.37054992269165
  C   -1.04910954589889      5.44662257887981      4.35430876017787
  C   -3.43774233499435      5.79012254480316      4.25787858848954
  C   -2.34245807755187      5.08765056790455      4.77848296356754
  C   0.52835995986954      9.13635930746243     -0.48604039003921
  H   -4.54044003665832     10.81353840720299     -5.44858279433155
  H   -6.57107315369628     10.44094930683097     -4.02428427618077
  H   -2.30422273957531     10.44195348185449     -4.45712911865761
  H   -6.25258667781193      9.71257193924180     -1.66975284846221
  H   -0.54820757257009     10.71665365152431     -3.27310143072079
  H   1.54195735074551     10.21541832098944     -2.04814354536567
  H   -4.09465890717452      7.31961037078385      2.88823169763052
  H   0.13323277027970      6.62670013514851      3.00330142908019
  H   -0.19470571463866      4.92029902908417      4.76974317062409
  H   -4.43703877265115      5.55972680787711      4.61258256071888
  H   1.41119333646163      8.88670138423574      0.09028528874156
  C   -3.03603605110054     13.85442047635392      1.75389409374530
  C   -1.89176782314953     13.11351238279903      1.49204592334399
  C   -4.27520310223493     13.24165357640798      1.62580820366033
  C   -4.33322388322824     11.90259957292013      1.23528455687024
  N   -3.22370690662263     11.18059418297919      0.98871055729473
  C   -2.04036266607957     11.78255577397788      1.11598639895301
  C   -5.61706159306306     11.17642906821733      1.07952911797947
  C   -6.85342676034850     11.82948012155029      0.98097237997153
  C   -8.00899717157718     11.07008020060703      0.85200136406103
  C   -6.63710910396612      9.12037089472210      0.88236413389784
  N   -5.52252190027022      9.84256878666056      1.01933533312317
  N   -6.56623384556562      7.71253577703879      0.84671523441299
  N   -5.41904308058981      7.24887012670959      0.60220960426660
  C   -5.31806941985692      5.85132354588533      0.72900069316280
  C   -4.07486010949490      5.28418913175656      0.42630065514985
  C   -6.34606946013506      5.03726426396753      1.23341209760190
  C   -6.10579497621504      3.70178153103805      1.47279121839204
  C   -3.84265861006160      3.94078956527090      0.67081432869905
  C   -4.84284510894961      3.12685888424687      1.22602829471649
  C   -7.91261256479798      9.68616184306230      0.81926852175553
  H   -2.96800011837720     14.89272563507507      2.06008990303924
  H   -0.90390582043317     13.55072056868219      1.58074691993774
  H   -5.17678505492439     13.79910402707907      1.84834386656914
  H   -1.16354096842188     11.17253294773495      0.90837583115744
  H   -6.91622035647442     12.91013159561487      0.99558590928408
  H   -8.97545268430243     11.55697375777159      0.77840497834856
  H   -3.28900387635358      5.92643900959581      0.04063540222828
  H   -7.31491299407777      5.47403385881911      1.44286680741022
  H   -6.90966505035238      3.07778182810817      1.84921327294395
  H   -2.85651441667969      3.52914552842341      0.48511173133346
  H   -8.78056529028325      9.04378976373890      0.73020697383501
  Li  -3.68118162117626      9.12533375632469      0.31939888862297
  C   12.17210134835835      3.99704442900510      6.40641122535755
  C   12.03466485636358      2.61630881588479      6.44614804778437
  C   11.28007984263280      4.73755378126645      5.64251402668733
  C   10.27644453502415      4.07215732668859      4.93623857796532
  N   10.13688789537881      2.73390768779278      4.98068233764470
  C   11.00085571892754      2.03557322189297      5.71900197814313
  C   9.28256207003503      4.79310177628447      4.10445207728323
  C   9.46848151579272      6.11640284174974      3.68055674606568
  C   8.47885004068156      6.72838039350263      2.92322721913153
  C   7.24878709285459      4.68831571466834      3.03001015451075
  N   8.19168972404008      4.09387043539476      3.76564201174671
  N   6.06881922453660      3.99299395505496      2.69062865117828
  N   6.13912014247830      2.74076158083118      2.80930876722502
  C   4.91399716918961      2.07075356713286      2.62100206059566
  C   4.95399051382930      0.67303929200314      2.66440537219099
  C   3.67780745875772      2.72538980622618      2.49476581202192
  C   2.51356571759597      1.98774125415130      2.45095164309497
  C   3.77923288486126     -0.05980306306503      2.61828178633507
  C   2.53412733903651      0.58188160569937      2.53241764807311
  C   7.33228951410026      6.01541379280650      2.60313547985347
  H   12.95691099074109      4.49389137894264      6.96646773715530
  H   12.70720751593196      1.99889326449917      7.03035929019105
  H   11.35787987229281      5.81756944596750      5.61959390311511
  H   10.86182657542525      0.95652587409636      5.73297294980599
  H   10.37206149670731      6.65857743513235      3.92881877626834
  H   8.60257379408975      7.75308436806555      2.58980980924137
  H   5.91577352642378      0.18105302824449      2.77204883229979
  H   3.65237559231327      3.80719529461087      2.44483057945891
  H   1.56344291295404      2.50037531558459      2.33924125710320
  H   3.82263237006736     -1.14016891050305      2.70488247567553
  H   6.52069132823888      6.44490495861178      2.02808854649224
  C   11.30634355818810      2.11401136235862     -0.41584110199827
  C   10.42054810837445      3.16671674832669     -0.23082008818145
  C   11.34241647395296      1.09458831132490      0.52615941253233
  C   10.49115532451696      1.16044780712847      1.63068620915028
  N   9.62626158723490      2.17770539094992      1.80736164898958
  C   9.60242089463913      3.14937371565305      0.89385955828583
  C   10.46614812523388      0.11062117378761      2.67862834720088
  C   11.48266683070510     -0.84225916620919      2.83003530167767
  C   11.36779516539679     -1.79483726349801      3.83414863610927
  C   9.31120761368683     -0.76893885064999      4.46893957317065
  N   9.40744066330142      0.14030133679796      3.49649320647955
  N   8.19191268838776     -0.76766003169297      5.32896898429851
  N   7.51478481479877      0.29605116988395      5.29934548234270
  C   6.32038470549800      0.25169827319039      6.03862555727227
  C   5.48523262569900      1.36740346916699      5.90998576054552
  C   5.89151844643879     -0.85501810329342      6.79208269999380
  C   4.62172680865686     -0.86019748577949      7.33267576463647
  C   4.19977621154148      1.33706818131178      6.42162924954852
  C   3.73383241941379      0.20949743025230      7.11144739651991
  C   10.25679046599722     -1.77758604614311      4.66575441601781
  H   11.95675090230364      2.08075582496309     -1.28321944896161
  H   10.35783785401805      3.98255333719214     -0.94170862687262
  H   12.01195485882729      0.25485537387194      0.38589960498906
  H   8.89331125937584      3.95669157059233      1.06620572030624
  H   12.35217838555825     -0.83894171855259      2.18509659167847
  H   12.14190597421338     -2.54332702082484      3.96494615496147
  H   5.85484445045359      2.23195277660801      5.36940085562686
  H   6.55124903135244     -1.70610061756430      6.90976839867581
  H   4.27231689725764     -1.72785548710866      7.88487448861433
  H   3.54260352172216      2.19002605142447      6.28720651355570
  H   10.11279472339140     -2.50074849106460      5.45962223590745
  Li  8.50384592742533      2.01457768529438      3.69813067512258
  C   6.77997216365074    -11.76749806880655     14.65483289043998
  C   5.57171627921323    -12.31544021270578     14.24601962527084
  C   7.43360195406021    -10.88083904758168     13.80975013417316
  C   6.85853603624383    -10.57036685604042     12.57595132745955
  N   5.68168643622761    -11.09298653617401     12.18309024510944
  C   5.06536195885927    -11.94391713409412     13.00507771627628
  C   7.49354904397359     -9.62961155375860     11.62119749795908
  C   8.84558246365030     -9.26962495073007     11.70365623110716
  C   9.36038346162941     -8.36507444302756     10.78486817331169
  C   7.20156801985735     -8.28806736066787      9.77236894948220
  N   6.69577508447523     -9.15218906373502     10.65672067382529
  N   6.38175406159830     -7.73184310403617      8.76859880510621
  N   5.30218688202031     -8.34928190615124      8.56177581441033
  C   4.42471905223984     -7.70130502063341      7.67263042457735
  C   3.22868552017713     -8.36723406769184      7.38230789948346
  C   4.64036105309240     -6.41196137616170      7.15704680969794
  C   3.65864700890779     -5.80047209146795      6.40664591938485
  C   2.24631381895051     -7.74316475384639      6.63223786151755
  C   2.42925922667684     -6.43860799563118      6.14558157692936
  C   8.52501348792417     -7.84223044094610      9.80840010166234
  H   7.20649289840732    -12.01961339797596     15.61971750881271
  H   5.02677398576041    -13.01106257392392     14.87371899899663
  H   8.36494678667809    -10.42465190563818     14.12203057075388
  H   4.11786349931850    -12.35065994410816     12.65769093999855
  H   9.48835218486233     -9.69365808700764     12.46454683131569
  H   10.40316809945693     -8.07074259840684     10.83448340762640
  H   3.07200075763909     -9.36059246365522      7.79142826404962
  H   5.57573674458623     -5.90658103573339      7.36482310751747
  H   3.84269057913001     -4.81152005360039      5.99916209390730
  H   1.30289874482107     -8.25207135146819      6.46759190121448
  H   8.86663225930068     -7.12217216207254      9.07452883088823
  C   7.92357522410769    -13.85932775664566      7.91616139038287
  C   8.42329572471539    -12.56527889520564      7.96865686961996
  C   6.67355414494364    -14.11776895495224      8.46226747394649
  C   5.96013420427287    -13.07175643343724      9.05003989243271
  N   6.44097214739937    -11.81440342257313      9.09572722264526
  C   7.64262693987491    -11.58097471182072      8.56586175313008
  C   4.61744382618778    -13.26580715628815      9.65036837386303
  C   4.10064627084088    -14.52875413926944      9.97111438117059
  C   2.82656328550389    -14.61637596437947     10.51653240076935
  C   2.70718942712911    -12.23685726933044     10.42579159910433
  N   3.92537952028586    -12.14538756604088      9.88759166319947
  N   1.95096881892775    -11.06866295709889     10.66461551572678
  N   2.62135462266633    -10.00141732416048     10.63906139921078
  C   1.85440069621705     -8.82557185518191     10.72767139938085
  C   2.55695000785282     -7.63112565739583     10.53481071262535
  C   0.45850292894751     -8.79495327203194     10.88962063182769
  C   -0.21324851795826     -7.59388580856014     10.77898325127489
  C   1.87117789936276     -6.43893293477779     10.38057551110483
  C   0.47318356151148     -6.40623987151487     10.46635336114844
  C   2.09912989316519    -13.45490424260420     10.73657396253064
  H   8.49346939471493    -14.65675577234169      7.45161643445051
  H   9.39338901386045    -12.31777960078325      7.55324684406127
  H   6.25907824766481    -15.11702360882274      8.40972504080496
  H   8.00239277113745    -10.55530720886111      8.61799264639104
  H   4.68155746771396    -15.42748575908576      9.80765561813957
  H   2.40717334373634    -15.58477101110365     10.76730140173199
  H   3.63828529810390     -7.67143330929426     10.46396352819794
  H   -0.07746868040835     -9.71973139009360     11.06539316046799
  H   -1.29537959518904     -7.56819038775302     10.86891972231930
  H   2.41564688596078     -5.52014435959521     10.18830572672558
  H   1.09814507842389    -13.46470661310764     11.15107344229402
  Li  5.10141305615102    -10.43822515885867     10.18445741088825
  C   -11.85728389575008    -12.20461543844716     15.24979957554008
  C   -12.53492372477937    -11.46715984890998     14.28853928460819
  C   -10.57557254598623    -12.65693218005261     14.96681125649744
  C   -10.00907329198614    -12.35976265997058     13.72576119121848
  N   -10.66136672556941    -11.63581668405426     12.79670655106015
  C   -11.89238092284315    -11.20862612451698     13.08240551556424
  C   -8.64485550156819    -12.80468085130111     13.35115000160214
  C   -7.96789067442206    -13.82406285066016     14.03418033287281
  C   -6.68310415456208    -14.16655163693838     13.63422294590073
  C   -6.86543273588706    -12.52184711129882     11.91652085644605
  N   -8.09821408806468    -12.17957765077959     12.30021046118039
  N   -6.24697881968987    -11.85868475290935     10.83650817314642
  N   -7.03509508698519    -11.22565586143065     10.08244390830319
  C   -6.39844233554188    -10.44004901865025      9.10425261133428
  C   -7.23159440775596     -9.77279019892528      8.19891685083290
  C   -5.01188444638080    -10.21538954620364      9.06249917409342
  C   -4.49108936733042     -9.31101897514911      8.16219090111586
  C   -6.69905553654840     -8.86647888302381      7.29759212011793
  C   -5.32090592870479     -8.59620755648975      7.27472341957741
  C   -6.10306010340088    -13.49433033804640     12.56821006777486
  H   -12.31461840267043    -12.42079067954993     16.20926347977214
  H   -13.53670334064994    -11.09350145807966     14.46667345954629
  H   -10.02368067234543    -13.21377709055719     15.71409864722292
  H   -12.39372298539292    -10.62901814362615     12.31004567575461
  H   -8.43582571864439    -14.34895574067525     14.85720729795071
  H   -6.14119593485271    -14.95012199440183     14.15271521787858
  H   -8.30173685979880     -9.94993196613779      8.24800434980385
  H   -4.36726328805283    -10.74872024574149      9.75069319107112
  H   -3.41774526733145     -9.15493798378770      8.12810338608765
  H   -7.36453264934200     -8.31768131324894      6.64013566652124
  H   -5.09979065288991    -13.70960969713413     12.22037592054238
  C   -10.88467606709409    -15.83977388210362      9.13697015373707
  C   -9.61721459492080    -15.75496475746579      9.69654105270470
  C   -11.67447835320147    -14.69878864371794      9.09044907711565
  C   -11.17226838193711    -13.50448365543788      9.60993486307267
  N   -9.93989655614802    -13.41900923517860     10.14595018651845
  C   -9.19248164089936    -14.52296586187806     10.18330166172481
  C   -11.95147451126048    -12.24243697927033      9.59480209307303
  C   -13.33609168666235    -12.20389913524888      9.37772372590816
  C   -13.98253423357506    -10.97516288767652      9.36786156656446
  C   -11.87869333109113     -9.95132512426850      9.82570406601027
  N   -11.24759110596647    -11.12745793795304      9.82327130202399
  N   -11.15320300956177     -8.75819358732973     10.03883593748594
  N   -9.99759468656872     -8.92556247433268     10.51128575606645
  C   -9.22449742613490     -7.74986105885609     10.58319137090350
  C   -7.87065575143153     -7.93466186680777     10.88083386295229
  C   -9.70330407093192     -6.46426633629675     10.28038442154813
  C   -8.81563770612246     -5.40948311642111     10.19847251799031
  C   -6.98034339329761     -6.88245549922958     10.74510754068481
  C   -7.43509248551505     -5.61281163050908     10.37025473614664
  C   -13.24614007745530     -9.81725304368128      9.57798718745207
  H   -11.25351095811421    -16.77764288009023      8.73594380165742
  H   -8.96610993571709    -16.61975050558227      9.75229342071117
  H   -12.65733445351297    -14.74221722026511      8.63738214736724
  H   -8.20206179348011    -14.42159948762078     10.62257355550150
  H   -13.90264486496586    -13.11423112237174      9.22843452855062
  H   -15.05261768141377    -10.92419923961449      9.19797817722633
  H   -7.53127612553645     -8.92336355117826     11.16724499538241
  H   -10.75861833999415     -6.32108608586944     10.08274175983978
  H   -9.17431704321927     -4.41894530279515      9.93437806086451
  H   -5.92141389704428     -7.04089226374187     10.92268204023134
  H   -13.69654270240375     -8.83185240195732      9.57199501047253
  Li  -9.50245461644023    -11.40337018999329     10.94457503563133
