425
Coordinates from ORCA-job ORCA
  C   -3.42421408124117     -2.20881233277968      3.12398859973579
  C   -4.21930546832514     -3.22190424900345      3.65525140056351
  N   -2.09804783565575     -2.59457775425795      3.27126145685828
  C   -2.03979053026782     -3.83047361422074      3.90429415668434
  C   -3.34699578175949     -4.24426207401634      4.14469726900191
  C   -4.49048407636230      1.70471968957273      1.72201958196005
  C   -3.56980558237937      0.92063394748704      1.01091235134750
  C   -5.10002930898430      1.13300873121869      2.85053505675329
  C   -4.76366149393366     -0.13744227210908      3.28061583346254
  C   -3.24466931565667     -0.36060165558997      1.42956704690669
  C   -3.81421002529259     -0.90513298022844      2.59018922276298
  C   0.19297135227032     -3.75499020927108      5.02889642473867
  C   -0.79912291253772     -4.46891875479983      4.33976985869206
  C   1.29032045955368     -4.40537606344241      5.56528254125717
  C   1.44063812654292     -5.79682689753138      5.45288058781615
  C   -0.62014266251387     -5.84971268056973      4.16953848899518
  C   0.47181369928974     -6.49996897864404      4.72044587907971
  C   -3.77431602355661     -5.45253994157621      4.85826282719750
  C   -3.18368399187617     -5.82711927128365      6.07364921265769
  C   -4.84872216631727     -6.21966801725997      4.38583127452252
  C   -5.36117121791023     -7.26800772527493      5.13225379070585
  C   -3.68599788823092     -6.88593464565035      6.81224091613566
  C   -4.81080095808857     -7.60578901269901      6.37753228643193
  C   -6.47784181613250     -2.74463955297578      2.69446609785138
  C   -7.84452140731846     -2.57415001317735      2.84312324325429
  C   -5.68092173669758     -3.17202695840404      3.76607785473069
  C   -6.32023293043560     -3.49208389747204      4.97344251679469
  C   -8.47871473403723     -2.84585462681011      4.06474609789633
  C   -7.68985825455717     -3.33861266144285      5.11676063215451
  C   0.27057380585265      0.24840464361939      3.28237647817445
  C   -0.88012598762336     -0.49506071935394      3.48073801739224
  C   1.37868962025367     -0.29014440235945      2.61117691280495
  C   1.25967619490239     -1.58016883661543      2.07436677879951
  C   -0.96062449244712     -1.79229984656260      2.97697641322547
  C   0.09843331429820     -2.32062616959090      2.24046143614273
  H   -3.12284270849497      1.30812118239001      0.10122434633676
  H   -5.80590263618748      1.71318543713869      3.43684131004478
  H   -5.21859830684548     -0.53643127547165      4.18133649135883
  H   -2.53987330698505     -0.94781230031091      0.85026776801714
  H   0.08336197849693     -2.68662570454957      5.18452443766406
  H   2.00847505796279     -3.82635905132724      6.13800651783798
  H   -1.35699929994997     -6.41429744526405      3.60816384833281
  H   0.58667018318579     -7.56695523707990      4.56096454666706
  H   -2.34474097193946     -5.25592247789971      6.45905979287476
  H   -5.29358603491975     -5.97568195582290      3.42680759403306
  H   -6.18964952335205     -7.84576100883274      4.73570969779853
  H   -3.23711481319234     -7.11266496337723      7.77485163164037
  H   -6.01168475838899     -2.53659880600691      1.73711750815718
  H   -8.43473410332036     -2.25185519445345      1.99136626332095
  H   -5.73093844186807     -3.83665514453355      5.81789309883226
  H   -8.14243258683241     -3.54868709509839      6.08156359167100
  H   0.32753912327848      1.24320801087854      3.71175350128614
  H   -1.70879774803940     -0.08312488335590      4.04649812222543
  H   2.07798697977611     -2.00254505505430      1.50090329176500
  H   0.01764616057431     -3.31728079719595      1.82077031784057
  C   -18.77229775461903     -0.21342290867365      1.90216398010680
  C   -18.04488688289042     -1.35577346745384      2.21053080492249
  C   -18.24204504822475      1.02937764597392      2.22244652727896
  C   -16.99420970166807      1.09405217111089      2.84576842653300
  N   -16.29964668226143     -0.01436820300126      3.16451576581267
  C   -16.81760283701493     -1.20137656100764      2.84657062488705
  C   -16.34010720490381      2.37870400475021      3.20581152147472
  C   -16.83824992935110      3.63458413920611      2.83040921495229
  C   -16.13063803055711      4.77392250683961      3.18915406221196
  C   -14.53656984766111      3.36088449951120      4.25486572569562
  N   -15.21102704990696      2.26416810250028      3.91054210531953
  N   -13.32660036082460      3.24971388084057      4.97409171894934
  N   -13.08732668018021      2.09380718101905      5.41522397638617
  C   -11.82188953191461      1.94090162726609      6.01354883448341
  C   -11.56678483393459      0.69533469412135      6.59652807988907
  C   -10.80505957143226      2.90970640153528      5.97082590673671
  C   -9.54729753280010      2.60094557358867      6.45142786759480
  C   -10.29778022802830      0.38547417546939      7.05278534487980
  C   -9.26019114731595      1.32254508677693      6.96181752312140
  C   -14.94798738690510      4.64707838291198      3.90567129500764
  H   -19.73874644615689     -0.28618327090704      1.41498014748112
  H   -18.41650421151299     -2.34445587453108      1.96691530756917
  H   -18.80138961484269      1.92726908952950      1.99081897758839
  H   -16.22165402291738     -2.07258694001183      3.11329377531317
  H   -17.74818380443141      3.72733553679181      2.25173866596877
  H   -16.49591636860106      5.75360822723464      2.90040331102936
  H   -12.37564812483520     -0.02195123986697      6.66815883540307
  H   -11.00943885428215      3.87609230094072      5.52607511958202
  H   -8.74944191056847      3.33419512829022      6.38265236519634
  H   -10.10172692761389     -0.59053399738671      7.48497997524254
  H   -14.35115807788070      5.50201711104678      4.20052866174343
  C   -19.02707836020466      3.22944445292956      6.27894466722538
  C   -17.92550558354448      4.03047148891614      6.55200413896273
  C   -18.85867188834247      1.85145853406318      6.23870722114897
  C   -17.58427719761590      1.32361097558099      6.46506679276501
  N   -16.51096263290073      2.09410756202868      6.69624184963877
  C   -16.69247841276717      3.41376156102883      6.74868216348894
  C   -17.34677618965704     -0.14099903975807      6.46385599685405
  C   -18.33784471103838     -1.03876463603566      6.88944482059847
  C   -18.06037698575464     -2.39766860609058      6.90864967036332
  C   -15.88539338542962     -1.87486340666507      6.08196274828921
  N   -16.14096606269284     -0.56047762852561      6.06578590881900
  N   -14.62584992069867     -2.35874242697222      5.67650373175665
  N   -13.90873650334019     -1.52362471728227      5.05600934589072
  C   -12.60696354415785     -1.96619665565809      4.76230070914735
  C   -11.85216589549543     -1.16982431246849      3.89311630201559
  C   -12.01466912357948     -3.08822135612903      5.36500048407646
  C   -10.68868613935097     -3.37756680417879      5.11804456855790
  C   -10.52775729515595     -1.47877231533184      3.63796030280129
  C   -9.91053246734967     -2.57619585418138      4.25998610087491
  C   -16.80493818950076     -2.83415473315970      6.50824618902536
  H   -20.00412496655430      3.66834213249031      6.10618382467809
  H   -18.01624439999880      5.10925606603690      6.61507557981581
  H   -19.69856986770419      1.20266755270582      6.01582365781476
  H   -15.80741252799781      4.01076521762633      6.96345729350211
  H   -19.29339920072112     -0.66870428465473      7.24092597462182
  H   -18.80825983606699     -3.10519296753673      7.24984120633704
  H   -12.31419236620572     -0.29539234023646      3.44435819456915
  H   -12.60443306215459     -3.70588527275940      6.03162828014855
  H   -10.23979193480186     -4.24990272289853      5.58199347543246
  H   -9.94449640449759     -0.83141932337098      2.99218177355457
  H   -16.52327254363112     -3.88030261970721      6.51190944221186
  Li  -14.82727992967992      0.46770548073074      4.81334253648621
  C   -2.79480241009090      0.43292399412382      7.99456622135659
  N   -3.95902109608129     -0.25525792090767      8.31030857260991
  C   -1.71719172817706     -0.37109215212473      8.36305152112279
  C   -2.25061214061988     -1.58190670300641      8.90924939640566
  C   -3.63796104351350     -1.48880974766123      8.86019855408707
  C   -2.55541503021088      4.07169758975634      5.74612697342987
  C   -3.47419389584881      3.07298638675373      5.39773075923740
  C   -1.77090760959761      3.88122832870941      6.89208024082032
  C   -1.89534949459334      2.72955600491864      7.65498831767359
  C   -3.57597390119471      1.90887344587765      6.13973480412114
  C   -2.78242575402741      1.70895287516493      7.27979221844761
  C   -0.45134236430023     -3.25990104928554      8.56266891152948
  C   -1.48836444414889     -2.75468015723858      9.35815036708943
  C   0.26656661511407     -4.37753467213855      8.95165282084122
  C   -0.04525238664345     -5.05557247589005     10.13689432929552
  C   -1.78543243999114     -3.42102732429124     10.55540223022702
  C   -1.08997379814216     -4.56314725109417     10.92944027341754
  C   -4.63830075667731     -2.49008958225002      9.22987578008158
  C   -4.45219408339007     -3.81661692598254      8.81434449696398
  C   -5.78333730913566     -2.18548787314904      9.98100198833050
  C   -6.70744889951670     -3.17122227543569     10.29925146751398
  C   -5.35991101583476     -4.80274941261170      9.15478296613247
  C   -6.50576314599678     -4.50021082306482      9.90266068176366
  C   -6.07053457318525     -0.65340239259695      7.18219197695633
  C   -7.36404456331896     -0.27099777134326      6.87073579476333
  C   -5.28099499067024      0.16413831561617      7.98901757381578
  C   -5.77937117443371      1.37762005072363      8.45770170184863
  C   -7.88482471679505      0.94516084288956      7.33182360028173
  C   -7.06781347774003      1.77015172402704      8.11512866974422
  C   1.46328343557509      0.57022496905530      6.58155827129727
  C   0.12075966496297      0.40038375924560      6.87049673101943
  C   2.44920218403447      0.21945043792848      7.51282874277659
  C   2.03897850684501     -0.25873852464508      8.76390404934238
  C   -0.29643362618742     -0.09429481746451      8.11402459903535
  C   0.69043536263145     -0.39400347258068      9.06478281161959
  H   -4.06078556781295      3.18479462151270      4.49093610404439
  H   -1.07688584418395      4.65628445131958      7.20251730927344
  H   -1.28966772947266      2.60402552995377      8.54617908651384
  H   -4.24819832357865      1.12637768755767      5.80748834354270
  H   -0.22054329776256     -2.77791824263756      7.61999177342479
  H   1.04524372492324     -4.77208390908836      8.30619644995690
  H   -2.57102906833514     -3.03549775177971     11.19715481179441
  H   -1.33265358955571     -5.05665454143314     11.86576614652502
  H   -3.59240126183988     -4.06581027990889      8.20337027860442
  H   -5.94273897497922     -1.17126311308264     10.33218710753745
  H   -7.57300105023420     -2.91602174751457     10.90293417734800
  H   -5.21133863384133     -5.81542192090506      8.79342462970682
  H   -5.66661874510164     -1.58369396323441      6.79817574071579
  H   -7.96603485977280     -0.90330260079005      6.22571526126191
  H   -5.16071320591410      2.00629403439921      9.08911082073381
  H   -7.45853709235910      2.70821374786528      8.49666866091841
  H   1.76708659768195      0.91086488835907      5.59639065409717
  H   -0.62215469375697      0.62251752334923      6.11377805409218
  H   2.78305789967703     -0.50330585426721      9.51600243236878
  H   0.39346737627090     -0.75331121133637     10.04430979423583
  C   -4.53776030368872     10.44563542812338     -4.41584294628515
  C   -5.66625980054561     10.18867474713187     -3.64947727760579
  C   -3.28563088385706     10.31288347802350     -3.83085327925679
  C   -3.19962571798588      9.92879758233572     -2.49156263347687
  N   -4.29333374774474      9.67178125263180     -1.74901516354255
  C   -5.48932824350634      9.80322573471571     -2.32459548173662
  C   -1.90092323400589      9.76202192661082     -1.79466893657252
  C   -0.69748262188575     10.28438435660028     -2.28789430795131
  C   0.47286994637078     10.07084767175688     -1.57131632637278
  C   -0.82436047301232      8.90281775877334      0.05289795506662
  N   -1.95061502782600      9.09075362380758     -0.63808425029820
  N   -0.85207629872737      8.17982251279567      1.26499881313482
  N   -2.00344735708928      8.03195326926229      1.75794662761405
  C   -2.05250488843316      7.19007598860359      2.88370594861219
  C   -3.33222374563153      6.87925898074939      3.35734086213986
  C   -0.92769700984072      6.58730773720327      3.47254427060677
  C   -1.10178760452225      5.63633856340340      4.45675952191360
  C   -3.49921633397807      5.89563768551932      4.31709690221755
  C   -2.38931706132014      5.23229701651532      4.85763456555721
  C   0.42321494167347      9.35323417513986     -0.38411214403359
  H   -4.62759871051038     10.73958658346191     -5.45603442456195
  H   -6.66318919208149     10.27811265571007     -4.06544623987914
  H   -2.39427257973905     10.48854622792449     -4.42063591490946
  H   -6.35272897599137      9.58916754915230     -1.69787813470729
  H   -0.67224571219066     10.85561550578010     -3.20718236806788
  H   1.41488754533981     10.46447538332722     -1.93769599816773
  H   -4.18424905365693      7.39369479621986      2.92664895768777
  H   0.06240464226321      6.85144346886077      3.12160871990149
  H   -0.23668482204748      5.14069011747812      4.88695446103937
  H   -4.49658713794732      5.63158280418252      4.65336016794878
  H   1.30550035103146      9.15167199888473      0.21158204642122
  C   -3.38305382178610     13.91814063137189      1.74048347080941
  C   -2.20245845849233     13.22517623008174      1.50999146053580
  C   -4.59161605689305     13.25105408490806      1.59183806462168
  C   -4.58300025327750     11.90756480650957      1.21286023169622
  N   -3.43848708020327     11.23207900697592      0.99691746917626
  C   -2.28517576622749     11.88590820998159      1.14363079409151
  C   -5.83064482601356     11.12476418460049      1.03936725717623
  C   -7.08928372844351     11.72517951344637      0.89807859577592
  C   -8.21043557351967     10.91775117337895      0.75900791332158
  C   -6.76255069697077      9.02589478172923      0.86458488655277
  N   -5.68020085484251      9.79463755193832      1.00857470372731
  N   -6.63908473993327      7.62110808003575      0.86476361734583
  N   -5.47277767269882      7.19178589942054      0.65201667982304
  C   -5.32977751560080      5.80034959580694      0.81192908919950
  C   -4.07025029824307      5.26214239123718      0.52452055436376
  C   -6.33687864776682      4.96784331281672      1.32772185703967
  C   -6.06364072877528      3.64175162280733      1.58433640532890
  C   -3.80553421621897      3.92720441394285      0.78406621408607
  C   -4.78808064717794      3.09390941640687      1.34200867970190
  C   -8.05779379017016      9.53850685333258      0.76065429034488
  H   -3.36638124708441     14.96094222364707      2.03835349892712
  H   -1.23649979894618     13.70540382493223      1.61568586562436
  H   -5.52126284054719     13.77008000768971      1.79059248799245
  H   -1.37872725959684     11.31240971184099      0.96107628797526
  H   -7.19407097637989     12.80263741020414      0.88745498623177
  H   -9.19346792692849     11.36344691353863      0.65175130102974
  H   -3.29975500362200      5.91959797576625      0.13343613341070
  H   -7.31712089189572      5.38242380102617      1.52909721736181
  H   -6.85253698343704      3.00265098227803      1.96714423544337
  H   -2.80962936172720      3.53707505401369      0.60367029940688
  H   -8.89700747599254      8.85950295067440      0.66771505687542
  Li  -3.79297322729924      9.15864649713436      0.34436462063090
  C   12.31887392746377      3.89342422041927      6.27119755627289
  C   12.17214004334408      2.51445554653997      6.33341870571165
  C   11.42556632984875      4.62850327614750      5.50348239840811
  C   10.41147018783866      3.95935391312238      4.81609035515245
  N   10.26274326050364      2.62301206319668      4.88261599083907
  C   11.12809950478356      1.92988827160152      5.62408195311417
  C   9.41535654359192      4.67374769705964      3.98133952260934
  C   9.60505122349997      5.98879526385276      3.53411091115181
  C   8.61327377934349      6.59290134899806      2.77314376536281
  C   7.37323822204266      4.56189943761702      2.92276963476788
  N   8.31811949790970      3.97547419116865      3.66196759362191
  N   6.18745204897335      3.86582301465281      2.60543859516284
  N   6.25463005241672      2.61539969003358      2.74323578015558
  C   5.02464860355401      1.94747730727520      2.57908744557423
  C   5.05892497629908      0.55022173892911      2.64047096875449
  C   3.79043863110350      2.60621784935938      2.45693859332943
  C   2.62260741792721      1.87337633063904      2.43423488535098
  C   3.88035716722397     -0.17801277621868      2.61387134965891
  C   2.63779405733387      0.46872074924709      2.53203695032540
  C   7.46068943140345      5.88092677898124      2.47250666998154
  H   13.11191347757844      4.39316897317409      6.81688508245190
  H   12.84556546333446      1.90140924983851      6.92121032629842
  H   11.51083361509919      5.70745630032636      5.46269745326290
  H   10.98159833612277      0.85213242820465      5.65583759048576
  H   10.51300425145705      6.53056652058209      3.76695249709195
  H   8.74008058525297      7.61111042324873      2.42145573777523
  H   6.01963535268818      0.05521315899967      2.74380426644377
  H   3.76946012345744      3.68736367527008      2.39303098266224
  H   1.67361692403445      2.38849807025119      2.32464736076823
  H   3.91891653998664     -1.25772759165802      2.71134516387576
  H   6.64804255294707      6.30508223749551      1.89496258009824
  C   11.39780485205070      1.90071933580831     -0.51028794721945
  C   10.53149535217866      2.97077508163370     -0.33259682263075
  C   11.42109773157825      0.89141244759746      0.44299300065964
  C   10.57722468333092      0.98472085358338      1.55115776495167
  N   9.73072230499438      2.01860663250421      1.72059357509384
  C   9.71889457286063      2.98009953340582      0.79626512572566
  C   10.54049211959643     -0.05171746636690      2.61207377383891
  C   11.53756034721563     -1.02434422314675      2.76674855211274
  C   11.41271830772656     -1.95953466105236      3.78594835615085
  C   9.38561020262468     -0.88067543093360      4.42714458600846
  N   9.49117644414130      0.01124270319752      3.43987116627329
  N   8.27579927261568     -0.83988844444766      5.29833678497869
  N   7.62467186476128      0.24000312204335      5.25801621264781
  C   6.43742297965964      0.23899526441743      6.00919779007281
  C   5.63815244463081      1.38127322352964      5.88387638030501
  C   5.97972749993189     -0.84944592061139      6.77225235177249
  C   4.71572920247271     -0.81048152711667      7.32449305638901
  C   4.35840681026347      1.39673546405032      6.41007061702337
  C   3.86154169546626      0.28762688153094      7.10847303355973
  C   10.31177569793892     -1.90612948363058      4.62950241768357
  H   12.04298198361938      1.84648133501619     -1.38050655102143
  H   10.47938862101653      3.77966111574963     -1.05223634003139
  H   12.07576762602601      0.03900789452490      0.30912445212575
  H   9.02434956619907      3.80121820398889      0.96280246084100
  H   12.40002269017498     -1.04998377669143      2.11289332962486
  H   12.17189156057908     -2.72269091791809      3.91957550071266
  H   6.03031637188328      2.23088890764629      5.33530960487276
  H   6.61152530755087     -1.72187046188812      6.88692418982910
  H   4.34248431989376     -1.66523614021221      7.88105761746438
  H   3.72994678066676      2.27175994872347      6.28048242935253
  H   10.16170544409116     -2.61376306174719      5.43611840770782
  Li  8.61390036760459      1.89415336173163      3.62440891358313
  C   7.01431385232139    -11.51346925518491     14.74451893662169
  C   5.80095959766838    -12.07474193076573     14.37042192226913
  C   7.65855342993345    -10.65909050999438     13.85987251218139
  C   7.06917254100979    -10.39328699947451     12.62242112009632
  N   5.88749142253734    -10.92866450287424     12.26305151108722
  C   5.28029545766532    -11.74837264587753     13.12267914485446
  C   7.69385366077249     -9.48948598135792     11.62609379323969
  C   9.04776589427949     -9.13101880050537     11.67808533679717
  C   9.55285451261353     -8.26104206200145     10.72124297573072
  C   7.38158243415910     -8.21409197338882      9.73423936858161
  N   6.88500506778152     -9.04428460644212     10.65535746942099
  N   6.54810442281998     -7.69208420405840      8.72319618106587
  N   5.46965436261616     -8.32119929899327      8.54864991626415
  C   4.57442899848308     -7.70314834434508      7.65596515036825
  C   3.37565453337213     -8.38092968238930      7.40754843951049
  C   4.77511842542937     -6.42784712623479      7.10144558806472
  C   3.77500426712826     -5.83878987273326      6.35773454421711
  C   2.37462500268242     -7.77922128551067      6.66354721966405
  C   2.54161128790088     -6.48618967167374      6.14227743559108
  C   8.70626636337010     -7.77055996391605      9.73758711459959
  H   7.45193535566969    -11.73057375453470     15.71293137646488
  H   5.26293441694052    -12.74631360623434     15.02950026580667
  H   8.59385505096011    -10.19299039599179     14.14457444615806
  H   4.32865863993383    -12.16655086828533     12.80117749940974
  H   9.69932223585261     -9.52962728228334     12.44522532606960
  H   10.59694552942979     -7.96827862043812     10.74698154556229
  H   3.23164199748097     -9.36351262280039      7.84621246592544
  H   5.71304375077311     -5.91465209621050      7.27594213562075
  H   3.94638047337003     -4.85991845174873      5.92144433555247
  H   1.42939658457325     -8.29454858679053      6.53271027236144
  H   9.04017644417222     -7.07799903838138      8.97427059195140
  C   8.08582287312423    -13.84892301567075      8.07182882020538
  C   8.58956766060609    -12.55538197010240      8.08023273946738
  C   6.83866319163819    -14.08630245996552      8.63380184019137
  C   6.13208605679514    -13.02008341241907      9.19294349090778
  N   6.61678089398416    -11.76340909038418      9.19566349696749
  C   7.81545970043898    -11.55037944074098      8.65093159595435
  C   4.79350758458012    -13.19022762183573      9.80960287489034
  C   4.27249631927132    -14.43992384026497     10.17201499222282
  C   3.00386586999719    -14.50297564933599     10.73367924615779
  C   2.89710083430517    -12.12641365251678     10.57377673451916
  N   4.10988662507894    -12.05942506453494     10.02011656214415
  N   2.15168546369467    -10.94655628589969     10.78556624787573
  N   2.82801284034927     -9.88432767356086     10.71552271782966
  C   2.06954140627019     -8.70209590180081     10.77918727920868
  C   2.77487160485995     -7.51586333547841     10.54726490991067
  C   0.67563180043384     -8.65994302287256     10.95558794235260
  C   0.00873678752276     -7.45914604290666     10.82174277527736
  C   2.09311092007701     -6.32410244502344     10.37265541780158
  C   0.69603595090904     -6.28146026364059     10.47325832814132
  C   2.28586035768158    -13.33106356826806     10.92802256427040
  H   8.65054065021070    -14.66237005573114      7.62924830152491
  H   9.55767954762910    -12.32413966524133      7.65104194031648
  H   6.42130695097512    -15.08559587528283      8.61605831377047
  H   8.17831303243058    -10.52458323032024      8.66827373881240
  H   4.84589927288729    -15.34690026138841     10.02885903828395
  H   2.58148283577482    -15.46080587089944     11.01781166491685
  H   3.85523845319882     -7.56290612231097     10.46570966532579
  H   0.13709166988688     -9.57691407372044     11.16160253410233
  H   -1.07204366647206     -7.42671644398818     10.92265403157606
  H   2.64046531682189     -5.41293629671861     10.15418932970634
  H   1.28997549152727    -13.32269472734868     11.35473088805399
  Li  5.28078110974790    -10.34840083805967     10.24813389117645
  C   -12.60592298021580    -12.88797664391221     14.35648599657464
  C   -12.84619450932597    -11.52961044388388     14.19202486404153
  C   -11.37526023966317    -13.40232098928176     13.96958002137634
  C   -10.42751927351503    -12.53516352983503     13.41878922054749
  N   -10.66812078703446    -11.22934152181641     13.22592088713370
  C   -11.84711879819906    -10.74734377026547     13.61846178942936
  C   -9.08381681548478    -13.01365072428442     13.00959631607240
  C   -8.46515657967621    -14.10243852950583     13.64203862781027
  C   -7.19310352905658    -14.48576242610426     13.24203139723954
  C   -7.25686052334477    -12.71968960362109     11.64160866803118
  N   -8.48079888733722    -12.33916022764627     12.02543473304964
  N   -6.58931059988361    -12.02557358604100     10.61260423125371
  N   -7.31847832995748    -11.23965668925647      9.94346491900570
  C   -6.63127404805138    -10.45072136283819      9.00481796774405
  C   -7.41570953070527     -9.69856470465657      8.12238735861640
  C   -5.23370162446313    -10.31053822473264      8.97955509279167
  C   -4.65131775235955     -9.41183777647812      8.11016033558047
  C   -6.82135490658793     -8.80804237863661      7.24621759064031
  C   -5.42837286231292     -8.62869566277861      7.23388657083063
  C   -6.56237790582608    -13.77925139468479     12.22715086871562
  H   -13.36144557102892    -13.53771764152088     14.78546957136236
  H   -13.78465488519230    -11.08273572837851     14.50103433060914
  H   -11.16745443015422    -14.46114965531789     14.07568213882839
  H   -12.00106663033300     -9.67936317600660     13.47101511388203
  H   -8.95672260822541    -14.61155353632759     14.46214742409540
  H   -6.69274030978806    -15.31511276580059     13.73005450095527
  H   -8.49586609315818     -9.80409957796459      8.15763082021498
  H   -4.62876590086090    -10.90089972382351      9.65716978991456
  H   -3.57050513127779     -9.31599149532618      8.09086296606291
  H   -7.44591615723030     -8.20048045224650      6.60064231566447
  H   -5.56562080596049    -14.02340023590684     11.87984009000306
  C   -11.24452993341757    -15.74654431667519      9.70173018071574
  C   -9.89068130651865    -15.57272514667431      9.44469951909344
  C   -12.03015174768057    -14.63005971364851      9.95505988676883
  C   -11.43587774365067    -13.36634256227775      9.94529218080988
  N   -10.11955579922672    -13.20012644434479      9.71890172360741
  C   -9.37780654400713    -14.27986907018709      9.47106873525720
  C   -12.20201820768678    -12.11599684457778     10.18421120834079
  C   -13.59935634028836    -12.07096685043377     10.29335307025713
  C   -14.21987663145421    -10.84380053993773     10.48581478179725
  C   -12.06442594336664     -9.83061530196503     10.46196939850107
  N   -11.46484874349262    -11.00601404936684     10.27384643858973
  N   -11.29201602741551     -8.65156619153854     10.53917395753069
  N   -10.05014260068138     -8.85284890057346     10.63473744934392
  C   -9.25508224361559     -7.69522157413742     10.58346911242854
  C   -7.88721573492341     -7.87840212479944     10.81588521859902
  C   -9.73531460755640     -6.42202799146088     10.23168590580848
  C   -8.84617088563154     -5.37893227558426     10.06469266129116
  C   -7.00192134960906     -6.83285763960641     10.62817286888098
  C   -7.46115820650254     -5.57188803368742     10.22118063145314
  C   -13.44875494075858     -9.69148680603130     10.56226089782328
  H   -11.68624007598972    -16.73726884779308      9.70194403643605
  H   -9.24421523761425    -16.41582272946880      9.22958253564890
  H   -13.08638852206609    -14.75290374097235     10.16031631149784
  H   -8.31994233813312    -14.10312580321000      9.28348320916543
  H   -14.19790840432319    -12.96884209977498     10.20983697178720
  H   -15.30026072491205    -10.78823698687289     10.56510818634341
  H   -7.53851098585844     -8.85378112113715     11.13567673089548
  H   -10.79580716840820     -6.28366292780178     10.05880036639594
  H   -9.21169767034772     -4.40548749665665      9.75185634346420
  H   -5.94164562730375     -6.98585142054418     10.80046484023739
  H   -13.88275883641594     -8.70860257280408     10.70244283403811
  Li  -9.44691260695869    -11.17389444110964     10.60873711865548
