425
Coordinates from ORCA-job ORCA
  C   -3.51149730739018     -2.15942234692148      3.06070365883182
  C   -4.29607815385526     -3.17327860913627      3.60434219526865
  N   -2.18042320132765     -2.52817270538467      3.21390431241182
  C   -2.11020378591185     -3.75573442301737      3.85979043173313
  C   -3.41275536387340     -4.18021598969008      4.10591228044126
  C   -4.57042569520642      1.73359673658268      1.60659281440722
  C   -3.65151528633834      0.93766808209282      0.90652721102081
  C   -5.19258292934876      1.17429747815760      2.73461193046144
  C   -4.86494038623036     -0.09299215160684      3.18071261293058
  C   -3.33380872564353     -0.33953517510403      1.34132685523792
  C   -3.90998168529952     -0.86771561613398      2.50618825090912
  C   0.11097067625968     -3.68300880584731      5.01559953032864
  C   -0.86791380484614     -4.38860661287823      4.29918751928996
  C   1.19492607708917     -4.34296574423796      5.56937617339107
  C   1.34648832189282     -5.73340978940490      5.44087853203657
  C   -0.68470272089299     -5.76657833496286      4.11213358021592
  C   0.39560310188472     -6.42494579994982      4.67483741398355
  C   -3.81530324007426     -5.38243524942636      4.84426446938473
  C   -3.20334883459865     -5.72153694130801      6.05974435117450
  C   -4.87573480044783     -6.18398480712943      4.39808458768657
  C   -5.34376488786957     -7.24172297584185      5.16157211717369
  C   -3.66449032910201     -6.78478885309771      6.81771419385197
  C   -4.76535326872236     -7.55180013056067      6.40162762907577
  C   -6.58580436585733     -2.72169410997648      2.68754367747294
  C   -7.94926804078631     -2.55699396174418      2.87528749720498
  C   -5.75560342117213     -3.13046900714698      3.74066102981310
  C   -6.35731015457373     -3.43693005607604      4.96934953214321
  C   -8.54587116938428     -2.81504898950127      4.11889267981670
  C   -7.72141205367761     -3.28959065137720      5.15143539913042
  C   0.15213683951605      0.34546899590123      3.24685923381833
  C   -0.99382561119757     -0.40987118433335      3.42902711248473
  C   1.27653983445647     -0.18309037294750      2.59402600783689
  C   1.17944455185195     -1.47602083519397      2.05965308668830
  C   -1.05056389273082     -1.71135289480466      2.93155626692283
  C   0.02546099116352     -2.22994227936418      2.21313090795459
  H   -3.19763991718633      1.31363425455749     -0.00448801914491
  H   -5.89918329057533      1.76359126375182      3.31020917083965
  H   -5.32699200736096     -0.48172878004851      4.08235932907870
  H   -2.62689725936046     -0.93575128496975      0.77386738086279
  H   -0.00077445763229     -2.61593200360490      5.18180205825916
  H   1.89952277046198     -3.77383396014459      6.16836176016101
  H   -1.41124166157974     -6.32256614290587      3.52912711081366
  H   0.51421691221546     -7.48923101023832      4.50118072073673
  H   -2.37611015063443     -5.12290485716063      6.42955679045965
  H   -5.34201712068134     -5.96348053066107      3.44349622924726
  H   -6.15818422830331     -7.84897241832803      4.78032749814248
  H   -3.19950756895297     -6.98108057087594      7.77929467439841
  H   -6.14959483352174     -2.52188300327760      1.71432672962434
  H   -8.56536714609180     -2.24789750162853      2.03712527329261
  H   -5.73866153806679     -3.76282479498128      5.79934519515670
  H   -8.14342986530435     -3.49371292954483      6.13089823980916
  H   0.19045151739061      1.34166325020221      3.67628675926227
  H   -1.83656464754710     -0.00249232700405      3.97742874873125
  H   2.00969556904372     -1.89071601155571      1.49800758311116
  H   -0.03759025070941     -3.22883802172410      1.79575704513441
  C   -18.72794239996776     -0.54165285621761      1.68585121581151
  C   -18.48852641509022     -1.42772003816381      2.72737288784974
  C   -17.97610983834298      0.62306584274825      1.61072317439327
  C   -17.00683557114392      0.86909391758864      2.58462501741871
  N   -16.76782294713461      0.00671668331703      3.59088454562455
  C   -17.49764575194821     -1.10820125275837      3.64997811435331
  C   -16.16085312785294      2.08731155609246      2.57237779395373
  C   -16.47311796912908      3.22364082776039      1.81367789378314
  C   -15.61597959800967      4.31551279657299      1.85208266524073
  C   -14.26508118213664      3.10296760770677      3.39831281977606
  N   -15.07612784893989      2.04368877627191      3.35491653801715
  N   -13.10437866001990      3.07211619710584      4.20048882727130
  N   -13.09030970780734      2.15220785161771      5.06308912022032
  C   -11.87747119493766      2.02791660300086      5.76395182906222
  C   -11.78107914995110      0.92901875278521      6.62519175830384
  C   -10.76355015341806      2.86371855816105      5.57427775089866
  C   -9.56482193918703      2.54812448463668      6.17977309549108
  C   -10.56464791141435      0.59862627155289      7.19771908787190
  C   -9.42821447096396      1.38280255842623      6.95735705989188
  C   -14.47714772927528      4.25875286642585      2.64335001913508
  H   -19.48388727297896     -0.75482076383499      0.93777821429682
  H   -19.05039804020012     -2.34954690018919      2.82443252197581
  H   -18.13404989296392      1.31466099099619      0.79222937468338
  H   -17.28049357793629     -1.78352667659503      4.47509192290971
  H   -17.37157553276531      3.26243784344567      1.21099171800083
  H   -15.83782002076287      5.20294639005101      1.26916922624222
  H   -12.66595432452079      0.32623102676513      6.79753860075829
  H   -10.85024000117788      3.72689296555742      4.92578163995704
  H   -8.69155022896916      3.16912710045586      6.00480424627555
  H   -10.48594618348642     -0.27525764400517      7.83615344774986
  H   -13.77009754529191      5.07733792170214      2.70600660072639
  C   -18.44159799136428      3.58779734465051      7.50519157003697
  C   -17.61286451420231      4.22997033332659      6.59533633299573
  C   -18.31249620935005      2.21628395324129      7.67754025837957
  C   -17.35730400972862      1.52516483486854      6.92988332182283
  N   -16.54783443194645      2.14801101793605      6.05290052956535
  C   -16.68317618574176      3.46586952880946      5.89771423928678
  C   -17.15354093802555      0.06220954936618      7.06229087763086
  C   -18.09807798449878     -0.78282460498347      7.66061907449223
  C   -17.81970448514901     -2.13929121150678      7.76420359691773
  C   -15.75187861797285     -1.71882114157013      6.65262473348875
  N   -16.00741826979004     -0.41155998831532      6.55694268756991
  N   -14.53660428055321     -2.24158700223918      6.16441030444997
  N   -13.92596445944229     -1.49258845880929      5.35390429962277
  C   -12.64385109778555     -1.94771399519085      4.99616541415917
  C   -11.95362058118943     -1.19131821101620      4.04186804760585
  C   -12.00409822216698     -3.03886343779639      5.60803910868233
  C   -10.69451307887756     -3.33016822649599      5.29267889932263
  C   -10.63830490981787     -1.49276800919479      3.73032372845184
  C   -9.97194466824783     -2.55379209861079      4.36439231699547
  C   -16.61679901807114     -2.62445119144449      7.27181181087505
  H   -19.17417547453878      4.14505463474289      8.07900449995906
  H   -17.67750415769495      5.29926177896236      6.43012077428037
  H   -18.93514387042940      1.70358309532471      8.40046753135067
  H   -16.01486697795243      3.93827540212054      5.18064839616112
  H   -19.03757656601120     -0.39336016999932      8.03151180105251
  H   -18.53634371265081     -2.80910160017748      8.22716316222504
  H   -12.45735198180908     -0.34572061341853      3.58370688518980
  H   -12.54719908651858     -3.63452350276171      6.33169475088005
  H   -10.21435749101131     -4.18465621026271      5.75831510206632
  H   -10.10154321592925     -0.86620536419026      3.02626288516168
  H   -16.34050502505683     -3.67012768106478      7.33607242438011
  Li  -15.22058024467675      0.74908368962682      4.99075157703304
  C   -2.93755841480316      0.35502432254032      8.00696721442822
  C   -4.11273482776022     -0.29904943454535      8.36826782764690
  C   -1.84256182548484     -0.48640174215617      8.37988974853287
  C   -2.37544586810346     -1.63865135579245      8.95345629107730
  N   -3.75781200302429     -1.50824799589718      8.95328770357725
  C   -2.53344072755088      3.93777696637486      5.67737687901026
  C   -3.47883297363837      2.95919870443631      5.34240955655716
  C   -1.75889231746646      3.74663384224105      6.82899163804147
  C   -1.92241733380723      2.61380100808299      7.61483907755371
  C   -3.61759214625807      1.81466954011760      6.10936226412487
  C   -2.84052316557803      1.61572335095020      7.25925205157723
  C   -0.66200778000793     -3.36889066030359      8.58074373160662
  C   -1.67759716113972     -2.84649781398201      9.39533122641968
  C   0.04302673381259     -4.49725787261032      8.95616776341543
  C   -0.26671880261441     -5.17626416457904     10.14183898637062
  C   -1.97897311519538     -3.51845223136515     10.58948558457969
  C   -1.29841543559281     -4.67577237566082     10.94562729519833
  C   -4.67085027129119     -2.52533596166814      9.35308709952123
  C   -4.56634987444579     -3.79071036339147      8.77944504693575
  C   -5.67496867815720     -2.25685153348282     10.28109843630829
  C   -6.58563359273907     -3.25205586038894     10.61663479368754
  C   -5.45006092021323     -4.79015162412766      9.15017732470561
  C   -6.47845983860107     -4.53427453978485     10.06585863227362
  C   -6.42248622504052     -0.78991430356252      7.54858169168755
  C   -7.70253332341848     -0.37348887584752      7.22581197352522
  C   -5.49571924297951      0.10151862305233      8.11023467778769
  C   -5.90435757929740      1.42451814592837      8.33814618862961
  C   -8.09882531615789      0.95591684459971      7.42063256182444
  C   -7.17636470468995      1.84834260743383      7.98343925971272
  C   1.32994017312339      0.40958421374587      6.56806579739305
  C   -0.01024783738106      0.22698916153462      6.86159050429208
  C   2.32070780342537      0.09981282793610      7.50810151723002
  C   1.91889673038937     -0.36502155073235      8.76725059861540
  C   -0.41891459795309     -0.24153729460769      8.11776523745448
  C   0.57257978055351     -0.51121673071268      9.07252674176865
  H   -4.05981011980845      3.07306065231882      4.43214701107911
  H   -1.04178425204490      4.50624013997165      7.12537000832527
  H   -1.32326716180196      2.48963199806775      8.51091849852171
  H   -4.31705881092022      1.04418706505824      5.80386131115282
  H   -0.43746189030892     -2.88800979658862      7.63620821361344
  H   0.80871775250884     -4.89873632151824      8.29926529297261
  H   -2.74627621922154     -3.12679899249182     11.24906890210931
  H   -1.54052487057097     -5.17328181588508     11.87988396373063
  H   -3.80225160428073     -3.98464020092382      8.03579590701123
  H   -5.74603387403643     -1.27114297333019     10.72812584654310
  H   -7.36702867320962     -3.04091323745409     11.33993295914287
  H   -5.37830646754549     -5.76872480205370      8.68528928615237
  H   -6.12621725682456     -1.80867669718701      7.32799711263896
  H   -8.38912890767173     -1.06713850648937      6.75029487010912
  H   -5.20924764878055      2.12348695301439      8.79093128602076
  H   -7.47050165926041      2.87604757000752      8.17340986621054
  H   1.62727942412713      0.73670559199682      5.57646146828337
  H   -0.75680121351723      0.42481615984664      6.10192321269670
  H   2.66722144410492     -0.57989392896312      9.52427533456047
  H   0.27971480284853     -0.84815525620086     10.06143830752647
  C   -4.44681656374247     10.49125009040228     -4.41998458557197
  C   -5.57132282046977     10.28988187754338     -3.63134652236395
  C   -3.19178738981396     10.28694838645255     -3.86257695518104
  C   -3.09872077739120      9.88915682111325     -2.52770277411824
  N   -4.18888341067447      9.68464038719876     -1.76424908304240
  C   -5.38777592975222      9.88490309749401     -2.31318862689598
  C   -1.79639974215530      9.65009883132783     -1.85918499580816
  C   -0.57883573390669     10.11421961690312     -2.37543249705746
  C   0.59426223028289      9.83653010934699     -1.68615415166923
  C   -0.72533126939649      8.72205987652751     -0.04181878976573
  N   -1.85563943698278      8.97344656315892     -0.70590249711823
  N   -0.75981588024149      7.98837823876432      1.16366643857802
  N   -1.90559623936970      7.88453820912467      1.68043828706809
  C   -1.96587123745331      7.03486975203488      2.79967300114876
  C   -3.24724403153466      6.76967548375048      3.29631289280251
  C   -0.85387489454550      6.38537988398344      3.36310963073160
  C   -1.04480200547264      5.43875575199432      4.34864454150364
  C   -3.43258725758618      5.78928929009795      4.25614407852892
  C   -2.33846150314049      5.08416356755064      4.77554596524687
  C   0.53359527117908      9.11299542327437     -0.50326304886561
  H   -4.54235329257535     10.79716009985789     -5.45621245366328
  H   -6.57043692823928     10.43674154058374     -4.02519033349860
  H   -2.30485470658894     10.41885458632979     -4.47015620590142
  H   -6.24827039998934      9.71294588493147     -1.66969936870215
  H   -0.54460912523000     10.69028097485860     -3.29139567124511
  H   1.54694668109715     10.18450100906762     -2.07071486409812
  H   -4.08741739309656      7.31900483246100      2.88578073077622
  H   0.13854841133633      6.61332456759414      2.99367169771054
  H   -0.19122915307816      4.91052102347429      4.76339268989718
  H   -4.43186586222741      5.56245983074328      4.61319760537045
  H   1.41704681928504      8.86152449462814      0.07132336705026
  C   -3.00945719641933     13.85025503436708      1.73290251077384
  C   -1.86833412045990     13.10549211276710      1.46834388556500
  C   -4.25081984732894     13.24056008359280      1.61166201735398
  C   -4.31417616087507     11.90059123621642      1.22508083116217
  N   -3.20765200201923     11.17485713740462      0.97590456739320
  C   -2.02214244437960     11.77391135353646      1.09660460741090
  C   -5.60066288173660     11.17762043100760      1.07617987766734
  C   -6.83587117709653     11.83361406033641      0.98246597259673
  C   -7.99383508353860     11.07692523098415      0.85918200026032
  C   -6.62668501712987      9.12388966914486      0.88520375881812
  N   -5.50983886049859      9.84349700949825      1.01698639957457
  N   -6.55906401498421      7.71585471919843      0.84983277296671
  N   -5.41353563976705      7.24984212154881      0.60184734258198
  C   -5.31478734545709      5.85215562131971      0.72835129715462
  C   -4.07304224512033      5.28303683332575      0.42336181598999
  C   -6.34312683836963      5.03971738093692      1.23467479292788
  C   -6.10448788166159      3.70386567361599      1.47367055818777
  C   -3.84239664027113      3.93937558801845      0.66778589320144
  C   -4.84281470811147      3.12697918206246      1.22485245829454
  C   -7.90104337099548      9.69272685700109      0.82697980677375
  H   -2.93730921026934     14.88922618469276      2.03588307210040
  H   -0.87891965601708     13.54023402245194      1.55171155353648
  H   -5.14989995194176     13.80119478105455      1.83628003128483
  H   -1.14783097619614     11.16095900355004      0.88701123568386
  H   -6.89607344033536     12.91441679648944      0.99647856732441
  H   -8.95939629760191     11.56615151078015      0.78941586415444
  H   -3.28692576759331      5.92398864599060      0.03606669931322
  H   -7.31093068596852      5.47798118417210      1.44582103231099
  H   -6.90864958804305      3.08121602129287      1.85168885804126
  H   -2.85710219359355      3.52638211268194      0.48062503917819
  H   -8.77095943225781      9.05247068953258      0.74195479450588
  Li  -3.67338978858953      9.11893548578042      0.31366118630741
  C   12.16072050210502      4.00884159298745      6.42033087316930
  C   12.02654433542735      2.62768917579265      6.45698950862370
  C   11.26818837078948      4.74874944639934      5.65645439914397
  C   10.26732996878164      4.08238080821964      4.94715563196259
  N   10.13078212320292      2.74374033538354      4.98879230679231
  C   10.99527614661019      2.04596298765107      5.72704127173143
  C   9.27306259391394      4.80266601255998      4.11528619436117
  C   9.45706644182410      6.12695547272296      3.69358493735592
  C   8.46732982100329      6.73806618694345      2.93574282133153
  C   7.24095363220459      4.69551881984667      3.03783576456181
  N   8.18396301238321      4.10188075399371      3.77399981948305
  N   6.06240198383746      3.99885730722081      2.69619084823840
  N   6.13407999427967      2.74656378880851      2.81324576260714
  C   4.90963252931424      2.07572746471813      2.62353086100228
  C   4.95065335368992      0.67799332266613      2.66592640759772
  C   3.67300652748282      2.72946886560948      2.49701885707488
  C   2.50933540967700      1.99097518389169      2.45242945347543
  C   3.77645838446310     -0.05570295305076      2.61904118357951
  C   2.53087762565978      0.58510704163515      2.53333540578308
  C   7.32258712939201      6.02337845880748      2.61297549713706
  H   12.94344578830006      4.50640946344902      6.98265798770511
  H   12.69963935123533      2.01068925825830      7.04100539574216
  H   11.34335731461875      5.82899893624042      5.63579443400671
  H   10.85874403936406      0.96656386422200      5.73874732609650
  H   10.35921315035811      6.67054263210914      3.94396487894058
  H   8.58953871901074      7.76348195010859      2.60394614527380
  H   5.91279367982895      0.18667990550417      2.77344638074537
  H   3.64676946272307      3.81128703699923      2.44760958813131
  H   1.55891443158393      2.50303382171647      2.34052393144932
  H   3.82069974788751     -1.13608621974387      2.70505216938087
  H   6.51111180949304      6.45225370359691      2.03730469256321
  C   11.31084171898589      2.13520554425793     -0.40582095988704
  C   10.42329113601787      3.18624513589742     -0.21978989852209
  C   11.34638960236181      1.11333783286058      0.53355018696110
  C   10.49288562413180      1.17517039925403      1.63658035845366
  N   9.62634802014913      2.19084727114782      1.81423869609872
  C   9.60296017863219      3.16485081931609      0.90322937868612
  C   10.46735493932126      0.12276107079661      2.68193996911894
  C   11.48393404387162     -0.83031846299709      2.83195188251527
  C   11.36868501611376     -1.78488652521385      3.83411545116709
  C   9.31154818971458     -0.76078076558315      4.46984313214406
  N   9.40811203878358      0.15026126485539      3.49913979445794
  N   8.19175063645681     -0.76135179828298      5.32916557105278
  N   7.51410232025987      0.30208632208029      5.30076405126458
  C   6.31966090400105      0.25615305352159      6.03991092385780
  C   5.48351063734934      1.37116476657766      5.91187621579196
  C   5.89178473111182     -0.85136691086274      6.79274868497980
  C   4.62190221839927     -0.85807002820692      7.33311627021002
  C   4.19792417528886      1.33922250015774      6.42309323812135
  C   3.73294839410346      0.21080883234298      7.11215238644360
  C   10.25733088266452     -1.76949814344624      4.66530878773902
  H   11.96307410363123      2.10513826511323     -1.27194374559374
  H   10.36090504643145      4.00389480984324     -0.92862328829492
  H   12.01742555477804      0.27494956262675      0.39241884478149
  H   8.89241049874655      3.97076373784302      1.07624613678975
  H   12.35379062174318     -0.82572508130576      2.18749746559847
  H   12.14287082072728     -2.53350102311419      3.96377378848207
  H   5.85234594743862      2.23642518937478      5.37190598638471
  H   6.55241455006490     -1.70176818553656      6.91031783912318
  H   4.27327233341550     -1.72630643318705      7.88489285575805
  H   3.53995095664624      2.19161774100699      6.28901434045439
  H   10.11326036322055     -2.49428266242342      5.45768099507299
  Li  8.50144802040643      2.02255472132963      3.70476665945129
  C   6.77928148770967    -11.77346871521741     14.64997729603865
  C   5.57103850853740    -12.32112735073662     14.24075568715902
  C   7.43276086040568    -10.88595556847921     13.80567455231783
  C   6.85757585833030    -10.57436771819099     12.57220402929033
  N   5.68074176198266    -11.09673370912865     12.17896066289548
  C   5.06455821009117    -11.94847712114895     13.00020132267518
  C   7.49251714716821     -9.63269164684801     11.61830421221474
  C   8.84448092717308     -9.27252898701857     11.70126599995043
  C   9.35925163465341     -8.36700469147540     10.78342227976664
  C   7.20056667638865     -8.28946715841491      9.77070523875206
  N   6.69480224859438     -9.15455008918700     10.65413546035571
  N   6.38082848945033     -7.73257791425359      8.76725258013670
  N   5.30147612199123     -8.35015693251977      8.55969876155022
  C   4.42396668600945     -7.70175500032376      7.67091197504616
  C   3.22808668566634     -8.36774249556714      7.38009863541761
  C   4.63940038530900     -6.41206841303659      7.15608259697998
  C   3.65764387739734     -5.80035237994870      6.40592900985954
  C   2.24563947955158     -7.74342086932134      6.63034782785260
  C   2.42837947582213     -6.43856362656125      6.14441655503001
  C   8.52390434389579     -7.84337701340411      9.80735659263296
  H   7.20589407743767    -12.02641978724924     15.61460272152519
  H   5.02620546155297    -13.01739459623516     14.86783494224226
  H   8.36408799431954    -10.43000979082173     14.11835635973675
  H   4.11706160491140    -12.35497012226551     12.65251531111496
  H   9.48723051325667     -9.69717699005160     12.46182870472250
  H   10.40197153573678     -8.07252158344399     10.83347568823495
  H   3.07155930117081     -9.36137042377390      7.78862273210038
  H   5.57470692773086     -5.90667947261776      7.36414127401970
  H   3.84149669847748     -4.81110990400830      5.99906626488535
  H   1.30231337270621     -8.25238901733191      6.46541071599545
  H   8.86543567606003     -7.12254079574567      9.07420946162565
  C   7.92153878257688    -13.85922120649242      7.90941522149509
  C   8.42118452425637    -12.56516951999913      7.96260297161970
  C   6.67168057259865    -14.11809607449933      8.45568890927085
  C   5.95835212951621    -13.07250996357364      9.04432006375433
  N   6.43913013230079    -11.81515673789190      9.09071962022032
  C   7.64063207016230    -11.58130498075631      8.56067846507729
  C   4.61581956547885    -13.26700514828501      9.64486015671623
  C   4.09914508010382    -14.53016509150140      9.96496837676528
  C   2.82519106893230    -14.61814111088091     10.51063150245315
  C   2.70570540156495    -12.23856900422185     10.42132723426796
  N   3.92377042808614    -12.14675966647781      9.88291498213140
  N   1.94946290682603    -11.07053946133813     10.66097171716947
  N   2.61976597567720    -10.00323518641455     10.63594575431271
  C   1.85271893562606     -8.82748818583074     10.72505873360906
  C   2.55519871337638     -7.63291071666113     10.53274718478613
  C   0.45678667161920     -8.79703144225054     10.88673372854212
  C   -0.21504617343215     -7.59596078561788     10.77652810130036
  C   1.86935603877084     -6.44070287741141     10.37893824123472
  C   0.47134811724176     -6.40812133637397     10.46457860807765
  C   2.09776257999492    -13.45682642994503     10.73152008606723
  H   8.49134961850688    -14.65630271702836      7.44417372254380
  H   9.39114675219739    -12.31734227418407      7.54708308434643
  H   6.25723527403594    -15.11733635355111      8.40263321405483
  H   8.00035378796455    -10.55565221080266      8.61339055296221
  H   4.68004657852281    -15.42878214400381      9.80083442309497
  H   2.40587457449257    -15.58669671658027     10.76090324028505
  H   3.63654193406304     -7.67309419257288     10.46195830814388
  H   -0.07917055723579     -9.72191936114259     11.06197395869568
  H   -1.29721532987790     -7.57045154973364     10.86608796432006
  H   2.41376447683995     -5.52184206113417     10.18687938996655
  H   1.09687412175172    -13.46692834446799     11.14624643216875
  Li  5.10046972790184    -10.43987402222582     10.18047301283694
  C   -11.85623267718268    -12.20588503736936     15.25024236208203
  C   -12.53419418269855    -11.46873667858374     14.28897142026985
  C   -10.57448958371820    -12.65801756601216     14.96710028296284
  C   -10.00828291679080    -12.36098087791053     13.72588931346672
  N   -10.66088524906917    -11.63731976833317     12.79682553983083
  C   -11.89193492463155    -11.21031061772327     13.08266659579133
  C   -8.64405659207134    -12.80571391867081     13.35109518520369
  C   -7.96692003132300    -13.82505436750855     14.03400806589463
  C   -6.68213751249766    -14.16738891972667     13.63389635135692
  C   -6.86481393988722    -12.52259487174131     11.91631103748074
  N   -8.09760809750687    -12.18049437703858     12.30011041451112
  N   -6.24651032886714    -11.85924465988387     10.83633098640353
  N   -7.03478898153295    -11.22629661971643     10.08238779839744
  C   -6.39837496358666    -10.44043796908692      9.10423814587430
  C   -7.23177909343491     -9.77323438478511      8.19909808192154
  C   -5.01184807632174    -10.21563274499361      9.06224410514744
  C   -4.49134734609224     -9.31099460366878      8.16203367541243
  C   -6.69954205537276     -8.86661775538322      7.29790592946111
  C   -5.32146267086293     -8.59601400975520      7.27498381608232
  C   -6.10227306830842    -13.49502984226004     12.56787543961375
  H   -12.31334201507435    -12.42195060809388     16.20983856882167
  H   -13.53601636859958    -11.09524773712024     14.46721985171496
  H   -10.02234453770054    -13.21462646581460     15.71437716028468
  H   -12.39352443678724    -10.63094887811502     12.31028508846460
  H   -8.43473539716608    -14.35004887075184     14.85703901283269
  H   -6.14009372132369    -14.95093759551757     14.15228012496005
  H   -8.30187758094104     -9.95060550713654      8.24831926693315
  H   -4.36701966548147    -10.74910785678063      9.75013099605157
  H   -3.41801369035211     -9.15491741010843      8.12759307390681
  H   -7.36516290602461     -8.31803341813362      6.64041500862322
  H   -5.09900365763801    -13.71015566286839     12.21994500300598
  C   -10.88377217978651    -15.84080109360161      9.13619959945415
  C   -9.61644241756651    -15.75588813093724      9.69605483638091
  C   -11.67378334214593    -14.69995507605278      9.08978605766673
  C   -11.17191226801807    -13.50568233976687      9.60966990923854
  N   -9.93966087693484    -13.42010430661869     10.14594604752681
  C   -9.19203894142521    -14.52392686169104     10.18319575216191
  C   -11.95133651403924    -12.24376701389326      9.59465442445474
  C   -13.33592090065160    -12.20546970483731      9.37734884989142
  C   -13.98259604102362    -10.97685704115435      9.36753706467113
  C   -11.87900598455108     -9.95266549539659      9.82580667686870
  N   -11.24767944923417    -11.12868615353255      9.82339153873972
  N   -11.15380496850900     -8.75936293638430     10.03901541720085
  N   -9.99824972620540     -8.92640745709235     10.51169488880324
  C   -9.22537277603207     -7.75053569549450     10.58336360769599
  C   -7.87148243835510     -7.93503648493147     10.88096798997040
  C   -9.70446452618797     -6.46506486079198     10.28048108876178
  C   -8.81700921669868     -5.41011433650747     10.19836656877027
  C   -6.98137516795597     -6.88268426488475     10.74497020249486
  C   -7.43640947713311     -5.61318333570933     10.36996146561910
  C   -13.24643951580980     -9.81883755357516      9.57787988670498
  H   -11.25233999166608    -16.77864153779098      8.73486107020643
  H   -8.96518707713901    -16.62056534627689      9.75173588195133
  H   -12.65654542855505    -14.74346374288488      8.63652222556282
  H   -8.20173516896815    -14.42247824136673     10.62270977304939
  H   -13.90226380321486    -13.11589171095824      9.22780647971270
  H   -15.05266412294773    -10.92607352662058      9.19750138503552
  H   -7.53190993690546     -8.92362399556653     11.16754524956648
  H   -10.75984656804623     -6.32208700003343     10.08305068507024
  H   -9.17591225777552     -4.41964970393191      9.93429145894354
  H   -5.92240026100181     -7.04087747495792     10.92253487935402
  H   -13.69702428650115     -8.83352040510937      9.57193240812920
  Li  -9.50286245154133    -11.40502262148115     10.94497856518884
